geometry optimzed in LAMMPS
_audit_creation_date              2020-11-30 
_audit_creation_method            'lammps2cif' 
_symmetry_space_group_name_H-M    'P1' 
_symmetry_Int_Tables_number       1 
_symmetry_cell_setting            triclinic 
loop_ 
_symmetry_equiv_pos_as_xyz 
  x,y,z 
_cell_length_a                    28.5770058 
_cell_length_b                    48.5137180247913 
_cell_length_c                    27.424479195298954 
_cell_angle_alpha                 93.1998435386613 
_cell_angle_beta                  89.53936185874724 
_cell_angle_gamma                 92.6718631373182 
loop_ 
_atom_site_label 
_atom_site_type_symbol 
_atom_site_fract_x 
_atom_site_fract_y 
_atom_site_fract_z 
_atom_site_charge 
O1          O  0.46913528  0.17882039  0.44388024    -0.81600
O2          O  0.49139175  0.31229210  0.48416825    -0.66300
O3          O  0.01042909  0.23374678  0.46116033    -1.12900
C4          C  0.99359945  0.23952104  0.11794770     1.05300
O5          O  0.03095302  0.32062016  0.05586933    -0.79500
O6          O  0.08499788  0.27573554  0.04355026    -0.67100
Ni7        Ni  0.46806045  0.21433453  0.41559770     1.34900
C8          C  0.09658693  0.25122032  0.03156894     0.84100
O9          O  0.51444824  0.28175949  0.40685977    -0.80000
O10         O  0.46720058  0.24784739  0.38495610    -0.90300
C11         C  0.01071620  0.32868419  0.51656900     0.83600
O12         O  0.41561666  0.22402122  0.45617166    -0.68500
O13         O  0.03334427  0.25169860  0.11431773    -0.87800
C14         C  0.40419886  0.24857518  0.46817655     0.84500
C15         C  0.50677540  0.26023000  0.38099404     1.06000
H16         H  0.45825686  0.26915423  0.04742494     0.37800
O17         O  0.49020370  0.26580530  0.03808728    -1.10400
O18         O  0.06864012  0.23010211  0.03735736    -0.67100
Ni19       Ni  0.00055162  0.22591798  0.02734850     1.26300
O20         O  0.43215433  0.26964023  0.46204243    -0.67300
O21         O  0.98602762  0.21789614  0.09230201    -0.79600
C22         C  0.49062929  0.17090337  0.98286761     0.83800
O23         O  0.00968982  0.18737950  0.01518905    -0.66800
Ni24       Ni  0.03234400  0.28518703  0.08391412     1.27400
Ni25       Ni  0.50026049  0.27372297  0.47182971     1.26100
H26         H  0.04236024  0.23035407  0.45173160     0.38400
O27         O  0.45404885  0.17854113  0.22224741    -0.81600
O28         O  0.47959710  0.31144158  0.23419378    -0.66300
O29         O  0.99310991  0.23250782  0.21356517    -1.12900
C30         C  0.04631381  0.24578991  0.36039989     1.05300
O31         O  0.04718676  0.32164485  0.27283094    -0.79500
O32         O  0.09830584  0.27688947  0.25301216    -0.67100
Ni33       Ni  0.43887741  0.21060457  0.18983840     1.34900
C34         C  0.10758299  0.25198188  0.24146907     0.84100
O35         O  0.46332565  0.27745053  0.15824402    -0.80000
O36         O  0.42013287  0.24062935  0.15493548    -0.90300
C37         C  0.01154432  0.32867624  0.24988173     0.83600
O38         O  0.40197132  0.22253518  0.24422183    -0.68500
O39         O  0.07994882  0.25977936  0.34309474    -0.87800
C40         C  0.39260316  0.24733421  0.25653676     0.84500
C41         C  0.45404994  0.25433157  0.13781338     1.06000
H42         H  0.48059915  0.27196529  0.30455834     0.37800
O43         O  0.50721480  0.26738618  0.28464995    -1.10400
O44         O  0.08047125  0.23125788  0.25219515    -0.67100
Ni45       Ni  0.01526063  0.22716714  0.27595882     1.26300
O46         O  0.41966409  0.26819495  0.24630560    -0.67300
O47         O  0.03716977  0.22258255  0.34005554    -0.79600
C48         C  0.48889155  0.17084375  0.24561980     0.83800
O49         O  0.01985988  0.18793130  0.26424676    -0.66800
Ni50       Ni  0.06167312  0.28965120  0.30703556     1.27400
Ni51       Ni  0.48486290  0.27257863  0.22238858     1.26100
H52         H  0.02015969  0.22795978  0.19388133     0.38400
O53         O  0.20657122  0.17679351  0.47858530    -0.81600
O54         O  0.22782408  0.31054385  0.48129224    -0.66300
O55         O  0.24385848  0.23126593  0.46422767    -1.12900
C56         C  0.29578821  0.24679486  0.11166013     1.05300
O57         O  0.29530354  0.32202730  0.02395414    -0.79500
O58         O  0.34935067  0.27845401  0.00576703    -0.67100
Ni59       Ni  0.19059335  0.20780740  0.44243442     1.34900
C60         C  0.35865593  0.25365928  0.99325439     0.84100
O61         O  0.21158489  0.27471593  0.40716676    -0.80000
O62         O  0.17117141  0.23663050  0.40446831    -0.90300
C63         C  0.25899030  0.32807643  0.49823479     0.83600
O64         O  0.15187210  0.22064707  0.49508323    -0.68500
O65         O  0.32926747  0.26120980  0.09525459    -0.87800
C66         C  0.14208411  0.24554255  0.50631726     0.84500
C67         C  0.20406704  0.25125324  0.38721098     1.06000
H68         H  0.23007715  0.27212075  0.05480609     0.37800
O69         O  0.25696870  0.26786429  0.03508166    -1.10400
O70         O  0.33138932  0.23279835  0.00296835    -0.67100
Ni71       Ni  0.26635034  0.22788156  0.02677202     1.26300
O72         O  0.16892755  0.26638546  0.49545372    -0.67300
O73         O  0.28803983  0.22357094  0.09099121    -0.79600
C74         C  0.24175724  0.17131254  0.99925592     0.83800
O75         O  0.27282568  0.18896039  0.01560547    -0.66800
Ni76       Ni  0.31044867  0.29060542  0.05859166     1.27400
Ni77       Ni  0.23392060  0.27128305  0.47142956     1.26100
H78         H  0.27068581  0.22700530  0.44423405     0.38400
O79         O  0.22140291  0.17872589  0.19434280    -0.81600
O80         O  0.23845466  0.31208689  0.23532949    -0.66300
O81         O  0.26086169  0.23409582  0.21125345    -1.12900
C82         C  0.24461608  0.23776398  0.36681320     1.05300
O83         O  0.27868805  0.31999851  0.30404298    -0.79500
O84         O  0.33411290  0.27587881  0.29193892    -0.67100
Ni85       Ni  0.21873877  0.21414619  0.16598836     1.34900
C86         C  0.34637843  0.25153596  0.27977417     0.84100
O87         O  0.26193766  0.28224707  0.15750236    -0.80000
O88         O  0.21628961  0.24760414  0.13525081    -0.90300
C89         C  0.25787289  0.32864207  0.26730047     0.83600
O90         O  0.16589094  0.22309569  0.20664308    -0.68500
O91         O  0.28344932  0.25102976  0.36301024    -0.87800
C92         C  0.15376896  0.24753411  0.21844043     0.84500
C93         C  0.25532139  0.26064414  0.13152608     1.06000
H94         H  0.20708575  0.26752438  0.29664738     0.37800
O95         O  0.23916646  0.26474153  0.28690803    -1.10400
O96         O  0.31901912  0.23018864  0.28525759    -0.67100
Ni97       Ni  0.25122562  0.22510888  0.27554706     1.26300
O98         O  0.18124165  0.26881377  0.21275660    -0.67300
O99         O  0.23811616  0.21635217  0.34037802    -0.79600
C100        C  0.24297191  0.17038558  0.23081977     0.83800
O101        O  0.26241951  0.18701854  0.26260207    -0.66800
Ni102      Ni  0.28105376  0.28458486  0.33238499     1.27400
Ni103      Ni  0.24900889  0.27376618  0.22250764     1.26100
H104        H  0.29288423  0.23121949  0.20156824     0.38400
O105        O  0.45626796  0.99742833  0.06868312    -0.75100
O106        O  0.45591932  0.49560935  0.42377927    -0.75100
O107        O  0.46004925  0.45735220  0.99348731    -0.75200
O108        O  0.45229227  0.03627196  0.99823530    -0.75200
O109        O  0.02853600  0.04081609  0.49853168    -0.75200
O110        O  0.03775369  0.46231131  0.49542620    -0.75200
O111        O  0.03350592  0.50060228  0.42427954    -0.75100
O112        O  0.03385195  0.50238175  0.06855188    -0.75200
Ni113      Ni  0.45353960  0.99665325  0.99611109     1.25400
Ni114      Ni  0.03566544  0.50175676  0.49674545     1.25400
C115        C  0.99506334  0.99985339  0.09301314     0.87100
C116        C  0.99489334  0.49817208  0.39972393     0.87000
C117        C  0.00039389  0.44667764  0.49488561     0.87000
C118        C  0.98995794  0.05165832  0.99789099     0.87200
O119        O  0.45647218  0.99718319  0.31893022    -0.75100
O120        O  0.45641363  0.49800556  0.17426638    -0.75100
O121        O  0.45719299  0.45818924  0.24218193    -0.75200
O122        O  0.45611280  0.03703491  0.25104158    -0.75200
O123        O  0.03402842  0.04008571  0.25032764    -0.75200
O124        O  0.03503122  0.46122286  0.24232072    -0.75200
O125        O  0.03412390  0.50082243  0.17382858    -0.75100
O126        O  0.03414939  0.50037833  0.31872719    -0.75200
Ni127      Ni  0.45389158  0.99754447  0.24669033     1.25400
Ni128      Ni  0.03701109  0.50070050  0.24629368     1.25400
C129        C  0.99523597  0.99853768  0.34315760     0.87100
C130        C  0.99521373  0.49958576  0.14969998     0.87000
C131        C  0.99651682  0.44659566  0.24133014     0.87000
C132        C  0.99465960  0.05160765  0.25100112     0.87200
O133        O  0.21490886  0.49938260  0.43379385    -0.75100
O134        O  0.21565343  0.99762676  0.07831418    -0.75100
O135        O  0.21298530  0.03796116  0.01170114    -0.75200
O136        O  0.21745147  0.45931130  0.00000203    -0.75200
O137        O  0.29348744  0.46213566  0.50015229    -0.75200
O138        O  0.29073730  0.04200670  0.01148174    -0.75200
O139        O  0.29331725  0.50147384  0.07795123    -0.75100
O140        O  0.29260253  0.50253860  0.43371889    -0.75200
Ni141      Ni  0.21266870  0.99852510  0.00605617     1.25400
Ni142      Ni  0.29512571  0.50165706  0.50596859     1.25400
C143        C  0.25382170  0.50119192  0.40944712     0.87100
C144        C  0.25453982  0.99929820  0.10243803     0.87000
C145        C  0.25088333  0.05310745  0.01328873     0.87000
C146        C  0.25522535  0.44729962  0.49756645     0.87200
O147        O  0.21564575  0.49767104  0.18350656    -0.75100
O148        O  0.21527659  0.99968334  0.32837505    -0.75100
O149        O  0.21416365  0.03813671  0.25716730    -0.75200
O150        O  0.21651356  0.45913062  0.25396714    -0.75200
O151        O  0.29457341  0.46230222  0.25510002    -0.75200
O152        O  0.29208635  0.04129912  0.25711101    -0.75200
O153        O  0.29295365  0.50301542  0.32846017    -0.75100
O154        O  0.29336824  0.50059392  0.18347142    -0.75200
Ni155      Ni  0.21273599  0.99856169  0.25584765     1.25400
Ni156      Ni  0.29591201  0.50190213  0.25603838     1.25400
C157        C  0.25456768  0.49908778  0.15915157     0.87100
C158        C  0.25403571  0.00141171  0.35274289     0.87000
C159        C  0.25266019  0.05275528  0.25634676     0.87000
C160        C  0.25599605  0.44774907  0.25490563     0.87200
C161        C  0.28201730  0.13049804  0.26422575    -0.27000
C162        C  0.24517287  0.14021019  0.23710482    -0.15100
C163        C  0.21047788  0.12103940  0.21767025     0.35600
C164        C  0.21382219  0.09281061  0.22521393    -0.26400
C165        C  0.25098258  0.08303409  0.25158087    -0.15700
C166        C  0.28560053  0.10215306  0.27135668     0.36600
N167        N  0.32331843  0.09301442  0.29992320    -0.89900
H168        H  0.30858124  0.14508107  0.27950113     0.17800
H169        H  0.18729859  0.07823582  0.20982329     0.17700
N170        N  0.17158504  0.13020694  0.19086347    -0.89000
H171        H  0.34362768  0.10991539  0.31459704     0.35100
H172        H  0.34550217  0.08207083  0.27631684     0.40200
H173        H  0.15150366  0.14220677  0.21512838     0.39800
H174        H  0.14976859  0.11343452  0.17835330     0.34700
C175        C  0.28380410  0.37684831  0.29475435    -0.27000
C176        C  0.25711038  0.35917348  0.26203504    -0.15100
C177        C  0.23081768  0.37114720  0.22554395     0.35600
C178        C  0.23026328  0.40015412  0.22450099    -0.26400
C179        C  0.25705323  0.41744450  0.25726770    -0.15700
C180        C  0.28416911  0.40570606  0.29266069     0.36600
N181        N  0.31118032  0.42318065  0.32714711    -0.89900
H182        H  0.30458621  0.36818986  0.32246719     0.17800
H183        H  0.20970586  0.40936135  0.19718048     0.17700
N184        N  0.20493553  0.35408839  0.18956720    -0.89000
H185        H  0.32957066  0.41133101  0.35055482     0.35100
H186        H  0.28770073  0.43433587  0.34900923     0.40200
H187        H  0.22931569  0.34422150  0.16685592     0.39800
H188        H  0.18618025  0.36622096  0.16696068     0.34700
C189        C  0.20670574  0.12516053  0.52071112    -0.27000
C190        C  0.24590944  0.14166038  0.00768349    -0.15100
C191        C  0.28930202  0.12894401  0.00635687     0.35600
C192        C  0.29019603  0.10016534  0.01030723    -0.26400
C193        C  0.24863335  0.08378075  0.01549748    -0.15700
C194        C  0.20756414  0.09654041  0.52496857     0.36600
N195        N  0.16504994  0.08115138  0.53644378    -0.89900
H196        H  0.17370618  0.13520066  0.52502526     0.17800
H197        H  0.32352154  0.09043221  0.00766302     0.17700
N198        N  0.33208147  0.14504067  0.99932148    -0.89000
H199        H  0.13681237  0.09409549  0.53950781     0.35100
H200        H  0.16928566  0.07346116  0.57092702     0.40200
H201        H  0.33140580  0.15234989  0.96418935     0.39800
H202        H  0.36089955  0.13261422  0.00049424     0.34700
C203        C  0.21580088  0.40142534  0.99204027    -0.27000
C204        C  0.25653698  0.41657497  0.49245363    -0.15100
C205        C  0.29929838  0.40299512  0.49277201     0.35600
C206        C  0.29849270  0.37411771  0.49199974    -0.26400
C207        C  0.25628155  0.35805100  0.49097924    -0.15700
C208        C  0.21492895  0.37242111  0.99277515     0.36600
N209        N  0.17105003  0.35683144  0.99552317    -0.89900
H210        H  0.18286149  0.41162385  0.99311776     0.17800
H211        H  0.33149855  0.36403341  0.49310235     0.17700
N212        N  0.34356509  0.41837031  0.49523272    -0.89000
H213        H  0.14299090  0.36986376  0.99441406     0.35100
H214        H  0.16941808  0.34813447  0.02956971     0.40200
H215        H  0.34901702  0.42714667  0.46156578     0.39800
H216        H  0.37109240  0.40527786  0.49953977     0.34700
C217        C  0.03191524  0.09892211  0.26781141    -0.27000
C218        C  0.99346573  0.08208827  0.25048832    -0.15100
C219        C  0.45448443  0.09454514  0.23144681     0.35600
C220        C  0.45366103  0.12333217  0.23258073    -0.26400
C221        C  0.49184593  0.14046523  0.24990915    -0.15700
C222        C  0.03164796  0.12799319  0.26766584     0.36600
N223        N  0.07189657  0.14459968  0.28452353    -0.89900
H224        H  0.06224694  0.08937202  0.28171686     0.17800
H225        H  0.42295095  0.13233205  0.21837730     0.17700
N226        N  0.41643515  0.07797933  0.20927193    -0.89000
H227        H  0.09903620  0.13209215  0.29346514     0.35100
H228        H  0.06235346  0.15527250  0.31698573     0.40200
H229        H  0.42964650  0.06761507  0.17802673     0.39800
H230        H  0.39035015  0.09038140  0.19729662     0.34700
C231        C  0.04196701  0.40422156  0.23214728    -0.27000
C232        C  0.99828349  0.41599192  0.23983277    -0.15100
C233        C  0.45813413  0.39836416  0.24712212     0.35600
C234        C  0.46307637  0.36969167  0.24768668    -0.26400
C235        C  0.00712111  0.35831447  0.24239075    -0.15700
C236        C  0.04683839  0.37567171  0.23330483     0.36600
N237        N  0.09201078  0.36426965  0.22532985    -0.89900
H238        H  0.07282087  0.41735515  0.22559027     0.17800
H239        H  0.43266451  0.35626542  0.25467561     0.17700
N240        N  0.41274387  0.40944503  0.25521562    -0.89000
H241        H  0.11758210  0.37994364  0.21992571     0.35100
H242        H  0.09026026  0.35185194  0.19292446     0.40200
H243        H  0.41341973  0.42023666  0.28930709     0.39800
H244        H  0.38696883  0.39354669  0.25761229     0.34700
C245        C  0.02161399  0.09865674  0.51846188    -0.27000
C246        C  0.98776699  0.08213381  0.99617638    -0.15100
C247        C  0.45340964  0.09466245  0.96905179     0.35600
C248        C  0.45566153  0.12336090  0.96516563    -0.26400
C249        C  0.49082910  0.14044829  0.98853954    -0.15700
C250        C  0.02399703  0.12731728  0.51417089     0.36600
N251        N  0.06302151  0.14277936  0.53617636    -0.89900
H252        H  0.04845579  0.08949084  0.53913210     0.17800
H253        H  0.42930374  0.13236833  0.94361743     0.17700
N254        N  0.41672912  0.07884141  0.94356868    -0.89000
H255        H  0.05078401  0.15661581  0.56335760     0.35100
H256        H  0.08078412  0.15370280  0.50931609     0.40200
H257        H  0.39573056  0.06868750  0.96895187     0.39800
H258        H  0.43176057  0.06420271  0.91958734     0.34700
C259        C  0.47875698  0.36886994  0.47650875    -0.27000
C260        C  0.00940392  0.35913715  0.51107748    -0.15100
C261        C  0.03836718  0.37884290  0.53864273     0.35600
C262        C  0.03582009  0.40700354  0.53112468    -0.26400
C263        C  0.00428146  0.41652614  0.49776976    -0.15700
C264        C  0.47594217  0.39728784  0.46958283     0.36600
N265        N  0.44875399  0.40640018  0.93042849    -0.89900
H266        H  0.45976102  0.35428729  0.95346527     0.17800
H267        H  0.05773847  0.42172301  0.55290875     0.19300
N268        N  0.07058104  0.37126205  0.57480674    -0.89000
H269        H  0.42639087  0.38992098  0.41597816     0.35100
H270        H  0.46567459  0.41592054  0.40682650     0.40200
H271        H  0.09383501  0.35744843  0.55869465     0.39800
H272        H  0.05185579  0.36193173  0.60283704     0.34700
O273        O  0.47016468  0.17957445  0.94591822    -0.81600
O274        O  0.49187051  0.31288557  0.98639242    -0.66300
O275        O  0.01140039  0.23453992  0.96290553    -1.12900
C276        C  0.99265793  0.23900208  0.61668980     1.05300
O277        O  0.03111608  0.31985706  0.55325989    -0.79500
O278        O  0.08445457  0.27472016  0.54133045    -0.67100
Ni279      Ni  0.46897869  0.21511134  0.91751833     1.34900
C280        C  0.09580452  0.25014096  0.52953834     0.84100
O281        O  0.51515991  0.28259811  0.90889224    -0.80000
O282        O  0.46786690  0.24868892  0.88679678    -0.90300
C283        C  0.01062683  0.32934420  0.01903451     0.83600
O284        O  0.41644944  0.22466543  0.95806951    -0.68500
O285        O  0.03241475  0.25113891  0.61263826    -0.87800
C286        C  0.40488362  0.24919460  0.96995285     0.84500
C287        C  0.50720024  0.26132480  0.88238882     1.06000
H288        H  0.45761383  0.26863838  0.54570889     0.37800
O289        O  0.48948413  0.26520668  0.53619183    -1.10400
O290        O  0.06759648  0.22916342  0.53553518    -0.67100
Ni291      Ni  0.99942792  0.22528928  0.52561353     1.26300
O292        O  0.43286511  0.27027804  0.96404478    -0.67300
O293        O  0.98469737  0.21749676  0.59071847    -0.79600
C294        C  0.48941890  0.17021679  0.48096892     0.83800
O295        O  0.00814643  0.18669992  0.51351099    -0.66800
Ni296      Ni  0.03192996  0.28451667  0.58170698     1.27400
Ni297      Ni  0.50098088  0.27442046  0.97382626     1.26100
H298        H  0.04332067  0.23127928  0.95325788     0.38400
O299        O  0.45447059  0.17906152  0.72518396    -0.81600
O300        O  0.47737509  0.31194702  0.73328628    -0.66300
O301        O  0.99262353  0.23305526  0.71401547    -1.12900
C302        C  0.04656868  0.24725666  0.86068728     1.05300
O303        O  0.04475854  0.32270080  0.77207099    -0.79500
O304        O  0.09755125  0.27827593  0.75235325    -0.67100
Ni305      Ni  0.43880421  0.21048397  0.69104538     1.34900
C306        C  0.10721592  0.25335533  0.74117915     0.84100
O307        O  0.46232863  0.27702093  0.65754777    -0.80000
O308        O  0.41962847  0.23993021  0.65483601    -0.90300
C309        C  0.00891991  0.32946115  0.74910629     0.83600
O310        O  0.40080903  0.22260637  0.74457318    -0.68500
O311        O  0.07961808  0.26144022  0.84271928    -0.87800
C312        C  0.39132028  0.24740163  0.75673459     0.84500
C313        C  0.45324266  0.25375338  0.63734078     1.06000
H314        H  0.47971817  0.27257167  0.80517716     0.37800
O315        O  0.50616807  0.26830714  0.78478219    -1.10400
O316        O  0.08030577  0.23263333  0.75228707    -0.67100
Ni317      Ni  0.01530795  0.22823774  0.77646630     1.26300
O318        O  0.41831249  0.26826895  0.74624447    -0.67300
O319        O  0.03747893  0.22402091  0.84052120    -0.79600
C320        C  0.48952626  0.17189004  0.74890007     0.83800
O321        O  0.02098143  0.18919283  0.76558001    -0.66800
Ni322      Ni  0.06043825  0.29097413  0.80638813     1.27400
Ni323      Ni  0.48350788  0.27297393  0.72221187     1.26100
H324        H  0.01956004  0.22880819  0.69390694     0.38400
O325        O  0.20601219  0.17794822  0.97598546    -0.81600
O326        O  0.22846070  0.31178866  0.98380651    -0.66300
O327        O  0.24366901  0.23260532  0.96433338    -1.12900
C328        C  0.29625182  0.24681985  0.61126640     1.05300
O329        O  0.29401432  0.32122840  0.52229501    -0.79500
O330        O  0.34847059  0.27787792  0.50372264    -0.67100
Ni331      Ni  0.18969102  0.20975114  0.94234520     1.34900
C332        C  0.35818910  0.25306210  0.49192374     0.84100
O333        O  0.21195153  0.27676314  0.90854990    -0.80000
O334        O  0.16987620  0.23934685  0.90664458    -0.90300
C335        C  0.26008902  0.32909392  0.00041178     0.83600
O336        O  0.15267839  0.22198617  0.99671105    -0.68500
O337        O  0.32950590  0.26096178  0.59378996    -0.87800
C338        C  0.14275385  0.24682829  0.00814458     0.84500
C339        C  0.20292164  0.25344838  0.88857893     1.06000
H340        H  0.22969480  0.27126016  0.55405279     0.37800
O341        O  0.25654974  0.26707793  0.53422099    -1.10400
O342        O  0.33152625  0.23219036  0.50283215    -0.67100
Ni343      Ni  0.26659960  0.22716221  0.52682199     1.26300
O344        O  0.16925226  0.26775190  0.99693050    -0.67300
O345        O  0.28803723  0.22344452  0.59134832    -0.79600
C346        C  0.24284473  0.17049423  0.50136053     0.83800
O347        O  0.27405066  0.18834962  0.51645166    -0.66800
Ni348      Ni  0.31000646  0.29006923  0.55695152     1.27400
Ni349      Ni  0.23424256  0.27264620  0.97267932     1.26100
H350        H  0.27039537  0.22837581  0.94418551     0.38400
O351        O  0.22064972  0.17933896  0.69469364    -0.81600
O352        O  0.23939578  0.31270583  0.73504602    -0.66300
O353        O  0.26035497  0.23450909  0.71192506    -1.12900
C354        C  0.24241177  0.23916779  0.86744604     1.05300
O355        O  0.27855428  0.32052587  0.80449338    -0.79500
O356        O  0.33319163  0.27611945  0.79234425    -0.67100
Ni357      Ni  0.21845491  0.21480893  0.66635233     1.34900
C358        C  0.34513267  0.25168920  0.78036486     0.84100
O359        O  0.26342186  0.28248308  0.65766086    -0.80000
O360        O  0.21689806  0.24825442  0.63545824    -0.90300
C361        C  0.25820955  0.32918267  0.76752648     0.83600
O362        O  0.16546102  0.22417669  0.70669285    -0.68500
O363        O  0.28181849  0.25170050  0.86331423    -0.87800
C364        C  0.15354026  0.24872435  0.71817718     0.84500
C365        C  0.25620768  0.26097919  0.63154095     1.06000
H366        H  0.20628239  0.26872067  0.79643952     0.37800
O367        O  0.23834639  0.26561910  0.78698929    -1.10400
O368        O  0.31749465  0.23047393  0.78646842    -0.67100
Ni369      Ni  0.24945743  0.22586321  0.77631792     1.26300
O370        O  0.18135514  0.26984496  0.71226726    -0.67300
O371        O  0.23474855  0.21775881  0.84122246    -0.79600
C372        C  0.24103268  0.17082741  0.73179291     0.83800
O373        O  0.25951082  0.18745089  0.76429925    -0.66800
Ni374      Ni  0.28029779  0.28518378  0.83272609     1.27400
Ni375      Ni  0.24922929  0.27430685  0.72263271     1.26100
H376        H  0.29238082  0.23138851  0.70253358     0.38400
O377        O  0.45494936  0.99733039  0.56874347    -0.75100
O378        O  0.45627641  0.49627058  0.92372799    -0.75100
O379        O  0.45989236  0.45691580  0.49396600    -0.75200
O380        O  0.45077005  0.03574844  0.49806752    -0.75200
O381        O  0.03011424  0.04099548  0.99826421    -0.75200
O382        O  0.03799305  0.46235333  0.99449660    -0.75200
O383        O  0.03390690  0.50085236  0.92365274    -0.75100
O384        O  0.03245051  0.50265998  0.56897148    -0.75200
Ni385      Ni  0.45269566  0.99618716  0.49620694     1.25400
Ni386      Ni  0.03660433  0.50180587  0.99614711     1.25400
C387        C  0.99361001  0.00023919  0.59320018     0.87100
C388        C  0.99509133  0.49867728  0.89939956     0.87000
C389        C  0.00040141  0.44694053  0.99435561     0.87000
C390        C  0.98824157  0.05127929  0.49798275     0.87200
O391        O  0.45598155  0.99799694  0.81900120    -0.75100
O392        O  0.45493849  0.49934439  0.67449245    -0.75100
O393        O  0.45539250  0.45933469  0.74165558    -0.75200
O394        O  0.45564030  0.03814100  0.75213978    -0.75200
O395        O  0.03343544  0.04108103  0.75057510    -0.75200
O396        O  0.03324482  0.46201971  0.74129380    -0.75200
O397        O  0.03266151  0.50184587  0.67362911    -0.75100
O398        O  0.03367655  0.50097889  0.81816213    -0.75200
Ni399      Ni  0.45284874  0.99869580  0.74686076     1.25400
Ni400      Ni  0.03593040  0.50156113  0.74584351     1.25400
C401        C  0.99495687  0.99918005  0.84288535     0.87100
C402        C  0.99365890  0.50055897  0.64976589     0.87000
C403        C  0.99451861  0.44755230  0.74038557     0.87000
C404        C  0.99413816  0.05274649  0.75260838     0.87200
O405        O  0.21510147  0.49967961  0.93387613    -0.75100
O406        O  0.21475498  0.99713691  0.57829304    -0.75100
O407        O  0.21357447  0.03763181  0.51200155    -0.75200
O408        O  0.21573887  0.45874916  0.49981004    -0.75200
O409        O  0.29520988  0.46307717  0.99971145    -0.75200
O410        O  0.29138147  0.04107704  0.51181885    -0.75200
O411        O  0.29239399  0.50056680  0.57817258    -0.75100
O412        O  0.29276679  0.50354019  0.93345668    -0.75200
Ni413      Ni  0.21211151  0.99813766  0.50601827     1.25400
Ni414      Ni  0.29570057  0.50264765  0.00567602     1.25400
C415        C  0.25386017  0.50184681  0.90938173     0.87100
C416        C  0.25357519  0.99867411  0.60253409     0.87000
C417        C  0.25182322  0.05247714  0.51404532     0.87000
C418        C  0.25710047  0.44807504  0.99737186     0.87200
O419        O  0.21462616  0.49724444  0.68364568    -0.75100
O420        O  0.21485353  0.00015603  0.82855725    -0.75100
O421        O  0.21278549  0.03816031  0.75650365    -0.75200
O422        O  0.21616180  0.45929938  0.75497393    -0.75200
O423        O  0.29423774  0.46268955  0.75579959    -0.75200
O424        O  0.29077808  0.04167962  0.75649946    -0.75200
O425        O  0.29254274  0.50372669  0.82830678    -0.75100
O426        O  0.29234991  0.50048629  0.68345212    -0.75200
Ni427      Ni  0.21196028  0.99862367  0.75602454     1.25400
Ni428      Ni  0.29514940  0.50226327  0.75596276     1.25400
C429        C  0.25350857  0.49867194  0.65921962     0.87100
C430        C  0.25372988  0.00203826  0.85274373     0.87000
C431        C  0.25111541  0.05290447  0.75572502     0.87000
C432        C  0.25574372  0.44807046  0.75602238     0.87200
C433        C  0.27466999  0.13087035  0.77158697    -0.27000
C434        C  0.24313089  0.14045015  0.73773837    -0.15100
C435        C  0.21355976  0.12084750  0.71109396     0.35600
C436        C  0.21722506  0.09252999  0.71790012    -0.26400
C437        C  0.24906582  0.08309823  0.75113322    -0.15700
C438        C  0.27778433  0.10247002  0.77877398     0.36600
N439        N  0.30794544  0.09346898  0.81592419    -0.89900
H440        H  0.29700545  0.14560506  0.79278691     0.17800
H441        H  0.19497352  0.07760589  0.69694816     0.17700
N442        N  0.17936842  0.12959245  0.67771536    -0.89000
H443        H  0.32484588  0.11043343  0.83462007     0.35100
H444        H  0.33429391  0.08220775  0.79887089     0.40200
H445        H  0.15429773  0.14019604  0.69834194     0.39800
H446        H  0.16155193  0.11256622  0.66016562     0.34700
C447        C  0.28360988  0.37725760  0.79583798    -0.27000
C448        C  0.25722890  0.35966300  0.76270373    -0.15100
C449        C  0.23069959  0.37166357  0.72649032     0.35600
C450        C  0.23018406  0.40063351  0.72559903    -0.26400
C451        C  0.25687685  0.41784539  0.75852838    -0.15700
C452        C  0.28367266  0.40610930  0.79416280     0.36600
N453        N  0.30997255  0.42355455  0.82928715    -0.89900
H454        H  0.30430841  0.36854924  0.82356835     0.17800
H455        H  0.20964331  0.40988725  0.69831794     0.17700
N456        N  0.20436560  0.35467216  0.69077719    -0.89000
H457        H  0.32811720  0.41167433  0.85285874     0.35100
H458        H  0.28602551  0.43450576  0.85088946     0.40200
H459        H  0.22845373  0.34492730  0.66753825     0.39800
H460        H  0.18515305  0.36684137  0.66865937     0.34700
C461        C  0.20468696  0.12557946  0.01516122    -0.27000
C462        C  0.24749922  0.14103606  0.51063684    -0.15100
C463        C  0.29075272  0.12821634  0.50704782     0.35600
C464        C  0.29165778  0.09939341  0.51043791    -0.26400
C465        C  0.25023464  0.08316242  0.51744805    -0.15700
C466        C  0.20546380  0.09696572  0.01979383     0.36600
N467        N  0.16238289  0.08141206  0.02832719    -0.89900
H468        H  0.17143655  0.13546764  0.01739278     0.17800
H469        H  0.32469539  0.08951249  0.50577734     0.17700
N470        N  0.33323546  0.14424589  0.49826053    -0.89000
H471        H  0.13393706  0.09420228  0.02874493     0.35100
H472        H  0.16415826  0.07401096  0.06332312     0.40200
H473        H  0.33128340  0.15150884  0.46317843     0.39800
H474        H  0.36201095  0.13175419  0.49838292     0.34700
C475        C  0.21420363  0.40042022  0.48871580    -0.27000
C476        C  0.25836662  0.41737901  0.99238520    -0.15100
C477        C  0.30099479  0.40363691  0.99013894     0.35600
C478        C  0.29994716  0.37474276  0.99035896    -0.26400
C479        C  0.25757559  0.35898049  0.99291302    -0.15700
C480        C  0.21361646  0.37130888  0.48796492     0.36600
N481        N  0.16993354  0.35538361  0.48568763    -0.89900
H482        H  0.18122688  0.41050714  0.48770033     0.17800
H483        H  0.33280440  0.36441767  0.98948604     0.17700
N484        N  0.34533857  0.41887453  0.98904889    -0.89000
H485        H  0.14187471  0.36830266  0.48312941     0.35100
H486        H  0.16572737  0.34569598  0.51864285     0.40200
H487        H  0.34843022  0.42749881  0.95500538     0.39800
H488        H  0.37301161  0.40567460  0.99139964     0.34700
C489        C  0.03400988  0.09987097  0.76502468    -0.27000
C490        C  0.99283984  0.08342750  0.75492766    -0.15100
C491        C  0.45077238  0.09659609  0.74643995     0.35600
C492        C  0.45079438  0.12539847  0.74858039    -0.26400
C493        C  0.49209034  0.14187975  0.75610883    -0.15700
C494        C  0.03412340  0.12899659  0.76579277     0.36600
N495        N  0.07685554  0.14524542  0.77484638    -0.89900
H496        H  0.06635707  0.08999387  0.77187428     0.17800
H497        H  0.41810303  0.13502089  0.74216163     0.17700
N498        N  0.40829871  0.08086581  0.73355208    -0.89000
H499        H  0.10486918  0.13246504  0.77891774     0.35100
H500        H  0.07303460  0.15626048  0.80840447     0.40200
H501        H  0.41365489  0.07100584  0.69921165     0.39800
H502        H  0.38060825  0.09384450  0.72921445     0.34700
C503        C  0.03915661  0.40494761  0.73011314    -0.27000
C504        C  0.99580366  0.41690500  0.73870439    -0.15100
C505        C  0.45572797  0.39945098  0.74740099     0.35600
C506        C  0.46036092  0.37069094  0.74767317    -0.26400
C507        C  0.00422153  0.35912953  0.74147970    -0.15700
C508        C  0.04392843  0.37642406  0.73190190     0.36600
N509        N  0.08916159  0.36500468  0.72452221    -0.89900
H510        H  0.06996894  0.41795743  0.72278449     0.17800
H511        H  0.43002248  0.35737618  0.75545898     0.17700
N512        N  0.41087922  0.41082137  0.75761111    -0.89000
H513        H  0.11480467  0.38062333  0.71900319     0.35100
H514        H  0.08765505  0.35233496  0.69241302     0.40200
H515        H  0.41322258  0.42175139  0.79153384     0.39800
H516        H  0.38510728  0.39506393  0.76146582     0.34700
C517        C  0.02302009  0.09907111  0.01942316    -0.27000
C518        C  0.98586227  0.08169644  0.49611922    -0.15100
C519        C  0.45147943  0.09409046  0.46887311     0.35600
C520        C  0.45403381  0.12271976  0.46418440    -0.26400
C521        C  0.48961882  0.13982268  0.48678115    -0.15700
C522        C  0.02483965  0.12784567  0.01633482     0.36600
N523        N  0.06249911  0.14338991  0.04068782    -0.89900
H524        H  0.04950978  0.08982466  0.04042643     0.17800
H525        H  0.42772469  0.13165572  0.44247875     0.17700
N526        N  0.41464551  0.07816260  0.44382743    -0.89000
H527        H  0.04866132  0.15667769  0.06782397     0.35100
H528        H  0.08104875  0.15492345  0.01518976     0.40200
H529        H  0.39386575  0.06809072  0.46948121     0.39800
H530        H  0.42955541  0.06342778  0.41994465     0.34700
C531        C  0.48025364  0.36909322  0.97647525    -0.27000
C532        C  0.00883780  0.35974509  0.01334338    -0.15100
C533        C  0.03545363  0.37977078  0.04273134     0.35600
C534        C  0.03304614  0.40781873  0.03437077    -0.26400
C535        C  0.00391641  0.41690567  0.99833753    -0.15700
C536        C  0.47753994  0.39740991  0.96871023     0.36600
N537        N  0.44498947  0.40664977  0.43354185    -0.89900
H538        H  0.45658849  0.35428542  0.45481014     0.17800
H539        H  0.05321405  0.42281135  0.05741726     0.19300
N540        N  0.06506531  0.37265659  0.08158989    -0.89000
H541        H  0.43139463  0.38948671  0.91203722     0.35100
H542        H  0.47091710  0.41563148  0.90489906     0.40200
H543        H  0.09022895  0.35937907  0.06757201     0.39800
H544        H  0.04460059  0.36294172  0.10795152     0.34700
O545        O  0.46911557  0.67882894  0.44389559    -0.81600
O546        O  0.49142071  0.81229727  0.48424363    -0.66300
O547        O  0.01043742  0.73375446  0.46117245    -1.12900
C548        C  0.99354791  0.73950902  0.11791239     1.05300
O549        O  0.03093022  0.82061181  0.05587675    -0.79500
O550        O  0.08495932  0.77572734  0.04353340    -0.67100
Ni551      Ni  0.46803982  0.71434868  0.41562424     1.34900
C552        C  0.09654307  0.75121265  0.03154483     0.84100
O553        O  0.51442823  0.78177323  0.40689320    -0.80000
O554        O  0.46716225  0.74786731  0.38499580    -0.90300
C555        C  0.01074751  0.82868372  0.51665742     0.83600
O556        O  0.41562052  0.72403467  0.45622728    -0.68500
O557        O  0.03329887  0.75167820  0.11428161    -0.87800
C558        C  0.40421020  0.74858823  0.46824255     0.84500
C559        C  0.50673394  0.76024994  0.38101294     1.06000
H560        H  0.45821847  0.76915394  0.04740437     0.37800
O561        O  0.49016480  0.76580425  0.03806652    -1.10400
O562        O  0.06858977  0.73009585  0.03732244    -0.67100
Ni563      Ni  0.00050115  0.72591983  0.02730296     1.26300
O564        O  0.43216669  0.76965315  0.46211323    -0.67300
O565        O  0.98595660  0.71789127  0.09225110    -0.79600
C566        C  0.49060926  0.67090979  0.98278560     0.83800
O567        O  0.00963491  0.68738298  0.01512960    -0.66800
Ni568      Ni  0.03230803  0.78517395  0.08390040     1.27400
Ni569      Ni  0.50027612  0.77372859  0.47187015     1.26100
H570        H  0.04236502  0.73036130  0.45172918     0.38400
O571        O  0.45402336  0.67854312  0.22222287    -0.81600
O572        O  0.47956285  0.81144145  0.23415520    -0.66300
O573        O  0.99308697  0.73251133  0.21354158    -1.12900
C574        C  0.04626050  0.74580305  0.36039815     1.05300
O575        O  0.04715162  0.82164811  0.27280822    -0.79500
O576        O  0.09826549  0.77689393  0.25300677    -0.67100
Ni577      Ni  0.43884655  0.71060645  0.18982303     1.34900
C578        C  0.10754599  0.75198628  0.24147308     0.84100
O579        O  0.46330674  0.77744480  0.15820926    -0.80000
O580        O  0.42009545  0.74063089  0.15492714    -0.90300
C581        C  0.01151284  0.82867780  0.24985238     0.83600
O582        O  0.40195625  0.72253653  0.24421688    -0.68500
O583        O  0.07989810  0.75978683  0.34308616    -0.87800
C584        C  0.39257939  0.74733582  0.25651630     0.84500
C585        C  0.45401269  0.75432490  0.13778878     1.06000
H586        H  0.48055540  0.77196604  0.30454678     0.37800
O587        O  0.50717007  0.76739109  0.28463333    -1.10400
O588        O  0.08043493  0.73126262  0.25220197    -0.67100
Ni589      Ni  0.01521837  0.72717317  0.27594653     1.26300
O590        O  0.41963136  0.76819709  0.24626943    -0.67300
O591        O  0.03710078  0.72259556  0.34005658    -0.79600
C592        C  0.48885652  0.67084637  0.24560966     0.83800
O593        O  0.01982105  0.68793544  0.26424060    -0.66800
Ni594      Ni  0.06162874  0.78965716  0.30702244     1.27400
Ni595      Ni  0.48483169  0.77257891  0.22236175     1.26100
H596        H  0.02013884  0.72796505  0.19385762     0.38400
O597        O  0.20661611  0.67679484  0.47856783    -0.81600
O598        O  0.22787185  0.81055221  0.48131864    -0.66300
O599        O  0.24389868  0.73127172  0.46425233    -1.12900
C600        C  0.29574941  0.74681270  0.11165023     1.05300
O601        O  0.29527098  0.82202205  0.02387608    -0.79500
O602        O  0.34932109  0.77845379  0.00574162    -0.67100
Ni603      Ni  0.19063304  0.70781759  0.44244671     1.34900
C604        C  0.35862511  0.75365941  0.99322927     0.84100
O605        O  0.21165133  0.77472400  0.40718668    -0.80000
O606        O  0.17120910  0.73664875  0.40450613    -0.90300
C607        C  0.25902814  0.82808355  0.49828985     0.83600
O608        O  0.15192149  0.72064916  0.49510972    -0.68500
O609        O  0.32922522  0.76123069  0.09524396    -0.87800
C610        C  0.14212215  0.74554382  0.50633659     0.84500
C611        C  0.20410953  0.75126165  0.38723671     1.06000
H612        H  0.23004604  0.77212143  0.05478462     0.37800
O613        O  0.25693357  0.76786587  0.03505419    -1.10400
O614        O  0.33135825  0.73279872  0.00294648    -0.67100
Ni615      Ni  0.26631896  0.72788387  0.02676131     1.26300
O616        O  0.16895749  0.76638933  0.49546375    -0.67300
O617        O  0.28801084  0.72358654  0.09098410    -0.79600
C618        C  0.24172345  0.67131098  0.99927406     0.83800
O619        O  0.27279521  0.68896152  0.01560919    -0.66800
Ni620      Ni  0.31040951  0.79061403  0.05854976     1.27400
Ni621      Ni  0.23396115  0.77128871  0.47145901     1.26100
H622        H  0.27072970  0.72701415  0.44425958     0.38400
O623        O  0.22135607  0.67873135  0.19434194    -0.81600
O624        O  0.23842445  0.81208802  0.23536084    -0.66300
O625        O  0.26082222  0.73409950  0.21125437    -1.12900
C626        C  0.24464026  0.73775935  0.36682727     1.05300
O627        O  0.27865769  0.81999531  0.30407636    -0.79500
O628        O  0.33409262  0.77587889  0.29192265    -0.67100
Ni629      Ni  0.21869749  0.71415304  0.16598884     1.34900
C630        C  0.34635634  0.75153617  0.27975289     0.84100
O631        O  0.26189446  0.78225544  0.15751541    -0.80000
O632        O  0.21624999  0.74761295  0.13525186    -0.90300
C633        C  0.25783429  0.82864093  0.26734092     0.83600
O634        O  0.16585167  0.72310150  0.20664469    -0.68500
O635        O  0.28347482  0.75101907  0.36300291    -0.87800
C636        C  0.15373389  0.74753914  0.21845196     0.84500
C637        C  0.25527878  0.76065680  0.13152588     1.06000
H638        H  0.20706955  0.76752324  0.29667175     0.37800
O639        O  0.23914808  0.76474016  0.28692470    -1.10400
O640        O  0.31899823  0.73018755  0.28523455    -0.67100
Ni641      Ni  0.25119999  0.72510911  0.27555108     1.26300
O642        O  0.18120963  0.76881876  0.21278060    -0.67300
O643        O  0.23811478  0.71635082  0.34038818    -0.79600
C644        C  0.24291855  0.67038596  0.23081900     0.83800
O645        O  0.26237661  0.68701803  0.26259689    -0.66800
Ni646      Ni  0.28105091  0.78457777  0.33239603     1.27400
Ni647      Ni  0.24897677  0.77376892  0.22252255     1.26100
H648        H  0.29284236  0.73122431  0.20156044     0.38400
O649        O  0.45627043  0.49743439  0.06861536    -0.75100
O650        O  0.45596783  0.99560806  0.42385478    -0.75100
O651        O  0.46007326  0.95734821  0.99355695    -0.75200
O652        O  0.45230698  0.53628027  0.99816762    -0.75200
O653        O  0.02848193  0.54081773  0.49848572    -0.75200
O654        O  0.03777693  0.96230777  0.49551713    -0.75200
O655        O  0.03353718  0.00058977  0.42434524    -0.75100
O656        O  0.03383832  0.00238502  0.06862626    -0.75200
Ni657      Ni  0.45353601  0.49666046  0.99604383     1.25400
Ni658      Ni  0.03570332  0.00175371  0.49681333     1.25400
C659        C  0.99507867  0.49985327  0.09294273     0.87100
C660        C  0.99492100  0.99816300  0.39979433     0.87000
C661        C  0.00041129  0.94667933  0.49499811     0.87000
C662        C  0.98997727  0.55166244  0.99781650     0.87200
O663        O  0.45644108  0.49717970  0.31885309    -0.75100
O664        O  0.45641519  0.99800967  0.17434126    -0.75100
O665        O  0.45719195  0.95819419  0.24225372    -0.75200
O666        O  0.45608334  0.53702981  0.25096910    -0.75200
O667        O  0.03402154  0.54008943  0.25026125    -0.75200
O668        O  0.03502002  0.96121960  0.24237290    -0.75200
O669        O  0.03411096  0.00082223  0.17389326    -0.75100
O670        O  0.03416239  0.00036984  0.31878887    -0.75200
Ni671      Ni  0.45387664  0.49753947  0.24661411     1.25400
Ni672      Ni  0.03700967  0.00069655  0.24635527     1.25400
C673        C  0.99521841  0.49854417  0.34308797     0.87100
C674        C  0.99519836  0.99958697  0.14977003     0.87000
C675        C  0.99650225  0.94659589  0.24138403     0.87000
C676        C  0.99465000  0.55160831  0.25093330     0.87200
O677        O  0.21495045  0.99938851  0.43378165    -0.75100
O678        O  0.21566219  0.49763775  0.07833376    -0.75100
O679        O  0.21297845  0.53796592  0.01170861    -0.75200
O680        O  0.21743602  0.95930817  0.99997131    -0.75200
O681        O  0.29354747  0.96215187  0.50013193    -0.75200
O682        O  0.29073167  0.54201137  0.01147406    -0.75200
O683        O  0.29330916  0.00145552  0.07793490    -0.75100
O684        O  0.29264304  0.00256024  0.43370441    -0.75200
Ni685      Ni  0.21267198  0.49852827  0.00607470     1.25400
Ni686      Ni  0.29516795  0.00167370  0.50595732     1.25400
C687        C  0.25386114  0.00120534  0.40943241     0.87100
C688        C  0.25454892  0.49931576  0.10245711     0.87000
C689        C  0.25087767  0.55311175  0.01328753     0.87000
C690        C  0.25529004  0.94731058  0.49755973     0.87200
O691        O  0.21564234  0.99766844  0.18349321    -0.75100
O692        O  0.21524945  0.49967209  0.32838570    -0.75100
O693        O  0.21412438  0.53813251  0.25718816    -0.75200
O694        O  0.21649098  0.95913470  0.25396809    -0.75200
O695        O  0.29455218  0.96228512  0.25510383    -0.75200
O696        O  0.29204899  0.54131533  0.25717626    -0.75200
O697        O  0.29298088  0.00301722  0.32843231    -0.75100
O698        O  0.29336584  0.00055939  0.18344226    -0.75200
Ni699      Ni  0.21272561  0.49855682  0.25585894     1.25400
Ni700      Ni  0.29592255  0.00188471  0.25600754     1.25400
C701        C  0.25456149  0.99906800  0.15913070     0.87100
C702        C  0.25400386  0.50140219  0.35276079     0.87000
C703        C  0.25261359  0.55275943  0.25639191     0.87000
C704        C  0.25596331  0.94774336  0.25491885     0.87200
C705        C  0.28181947  0.63051113  0.26445351    -0.27000
C706        C  0.24511137  0.64020692  0.23710974    -0.15100
C707        C  0.21056315  0.62101250  0.21743988     0.35600
C708        C  0.21390037  0.59278636  0.22501428    -0.26400
C709        C  0.25092352  0.58303320  0.25161113    -0.15700
C710        C  0.28541467  0.60216714  0.27158070     0.36600
N711        N  0.32302729  0.59303973  0.30030808    -0.89900
H712        H  0.30828217  0.64510465  0.27989513     0.17800
H713        H  0.18748826  0.57819327  0.20946018     0.17700
N714        N  0.17182810  0.63014901  0.19035349    -0.89000
H715        H  0.34322136  0.60994853  0.31513228     0.35100
H716        H  0.34535159  0.58214778  0.27677498     0.40200
H717        H  0.15152869  0.64209255  0.21449362     0.39800
H718        H  0.15016139  0.61335729  0.17762891     0.34700
C719        C  0.28365594  0.87685163  0.29488510    -0.27000
C720        C  0.25705241  0.85917265  0.26209176    -0.15100
C721        C  0.23083964  0.87114235  0.22553244     0.35600
C722        C  0.23027884  0.90014828  0.22448411    -0.26400
C723        C  0.25699593  0.91744122  0.25730962    -0.15700
C724        C  0.28402735  0.90570858  0.29277847     0.36600
N725        N  0.31096856  0.92318866  0.32731641    -0.89900
H726        H  0.30436972  0.86819745  0.32265839     0.17800
H727        H  0.20978630  0.90935274  0.19710711     0.17700
N728        N  0.20505688  0.85408049  0.18948271    -0.89000
H729        H  0.32930472  0.91134304  0.35077705     0.35100
H730        H  0.28744605  0.93434890  0.34911510     0.40200
H731        H  0.22950029  0.84422765  0.16683061     0.39800
H732        H  0.18633896  0.86620922  0.16683575     0.34700
C733        C  0.20674416  0.62516745  0.52073604    -0.27000
C734        C  0.24589026  0.64166257  0.00770252    -0.15100
C735        C  0.28927215  0.62893673  0.00616881     0.35600
C736        C  0.29017787  0.60015951  0.01011909    -0.26400
C737        C  0.24863349  0.58378446  0.01549611    -0.15700
C738        C  0.20758599  0.59654534  0.52497683     0.36600
N739        N  0.16507070  0.58116621  0.53648468    -0.89900
H740        H  0.17375885  0.63521815  0.52510575     0.17800
H741        H  0.32349046  0.59041900  0.00731680     0.17700
N742        N  0.33202087  0.64502274  0.99891107    -0.89000
H743        H  0.13684231  0.59411663  0.53957422     0.35100
H744        H  0.16932723  0.57347189  0.57096127     0.40200
H745        H  0.33117982  0.65232575  0.96378222     0.39800
H746        H  0.36084014  0.63258877  0.99993567     0.34700
C747        C  0.21577964  0.90142093  0.99191663    -0.27000
C748        C  0.25660796  0.91658561  0.49247359    -0.15100
C749        C  0.29936261  0.90300631  0.49292787     0.35600
C750        C  0.29855192  0.87412894  0.49216101    -0.26400
C751        C  0.25634037  0.85806055  0.49103021    -0.15700
C752        C  0.21490275  0.87241538  0.99263338     0.36600
N753        N  0.17101833  0.85682441  0.99529873    -0.89900
H754        H  0.18284086  0.91161978  0.99294574     0.17800
H755        H  0.33155357  0.86404680  0.49335676     0.17700
N756        N  0.34362357  0.91838239  0.49553469    -0.89000
H757        H  0.14296276  0.86985738  0.99415807     0.35100
H758        H  0.16933619  0.84811596  0.02933400     0.40200
H759        H  0.34919260  0.92714748  0.46187477     0.39800
H760        H  0.37113044  0.90529206  0.49996471     0.34700
C761        C  0.03187425  0.59892457  0.26781458    -0.27000
C762        C  0.99345030  0.58208890  0.25043059    -0.15100
C763        C  0.45444574  0.59454742  0.23140809     0.35600
C764        C  0.45363671  0.62333452  0.23252176    -0.26400
C765        C  0.49180533  0.64046690  0.24989616    -0.15700
C766        C  0.03159950  0.62799623  0.26768595     0.36600
N767        N  0.07181135  0.64460584  0.28463481    -0.89900
H768        H  0.06218650  0.58937537  0.28176553     0.17800
H769        H  0.42294372  0.63233503  0.21828202     0.17700
N770        N  0.41637538  0.57798329  0.20926868    -0.89000
H771        H  0.09894528  0.63210186  0.29360740     0.35100
H772        H  0.06220619  0.65526347  0.31709084     0.40200
H773        H  0.42955818  0.56761880  0.17800922     0.39800
H774        H  0.39027397  0.59038498  0.19732863     0.34700
C775        C  0.04193597  0.90421948  0.23211716    -0.27000
C776        C  0.99826188  0.91599272  0.23986204    -0.15100
C777        C  0.45811764  0.89836848  0.24716755     0.35600
C778        C  0.46305080  0.86969454  0.24769878    -0.26400
C779        C  0.00708909  0.85831452  0.24236522    -0.15700
C780        C  0.04680282  0.87566842  0.23324941     0.36600
N781        N  0.09196612  0.86426176  0.22522393    -0.89900
H782        H  0.07278596  0.91735168  0.22553651     0.17800
H783        H  0.43264260  0.85627053  0.25471346     0.17700
N784        N  0.41274011  0.90945499  0.25532971    -0.89000
H785        H  0.11753673  0.87993237  0.21979078     0.35100
H786        H  0.09018180  0.85184330  0.19282083     0.40200
H787        H  0.41345796  0.92023831  0.28942873     0.39800
H788        H  0.38696154  0.89355986  0.25774502     0.34700
C789        C  0.02152134  0.59865067  0.51851361    -0.27000
C790        C  0.98778682  0.58213833  0.99608730    -0.15100
C791        C  0.45345611  0.59465992  0.96891733     0.35600
C792        C  0.45570298  0.62335774  0.96502177    -0.26400
C793        C  0.49083075  0.64045324  0.98844297    -0.15700
C794        C  0.02391581  0.62731228  0.51423706     0.36600
N795        N  0.06289935  0.64276992  0.53633234    -0.89900
H796        H  0.04833358  0.58948064  0.53921964     0.17800
H797        H  0.42936961  0.63235850  0.94343267     0.17700
N798        N  0.41680406  0.57883168  0.94340204    -0.89000
H799        H  0.05061079  0.65660102  0.56349441     0.35100
H800        H  0.08072013  0.65369744  0.50951558     0.40200
H801        H  0.39578161  0.56868033  0.96876861     0.39800
H802        H  0.43186199  0.56419060  0.91944603     0.34700
C803        C  0.47867246  0.86887375  0.47672492    -0.27000
C804        C  0.00941938  0.85913715  0.51119256    -0.15100
C805        C  0.03845726  0.87883765  0.53868091     0.35600
C806        C  0.03589964  0.90699964  0.53117323    -0.26400
C807        C  0.00428588  0.91652671  0.49789719    -0.15700
C808        C  0.47585869  0.89729101  0.46980025     0.36600
N809        N  0.44863457  0.90642034  0.93060684    -0.89900
H810        H  0.45962794  0.85430462  0.95362188     0.17800
H811        H  0.05787926  0.92171565  0.55289621     0.19300
N812        N  0.07076866  0.87124806  0.57474312    -0.89000
H813        H  0.42617143  0.88992894  0.41633096     0.35100
H814        H  0.46545587  0.91591094  0.40705946     0.40200
H815        H  0.09395992  0.85742194  0.55855654     0.39800
H816        H  0.05211619  0.86192513  0.60282950     0.34700
O817        O  0.47015585  0.67958471  0.94583159    -0.81600
O818        O  0.49184346  0.81289369  0.98640729    -0.66300
O819        O  0.01136531  0.73455072  0.96286571    -1.12900
C820        C  0.99268246  0.73897766  0.61669735     1.05300
O821        O  0.03115361  0.81985037  0.55333917    -0.79500
O822        O  0.08449239  0.77471317  0.54137868    -0.67100
Ni823      Ni  0.46895570  0.71513143  0.91746324     1.34900
C824        C  0.09583938  0.75013659  0.52955837     0.84100
O825        O  0.51512877  0.78262415  0.90888643    -0.80000
O826        O  0.46783716  0.74871847  0.88677148    -0.90300
C827        C  0.01060881  0.82934376  0.01904653     0.83600
O828        O  0.41642144  0.72467212  0.95802023    -0.68500
O829        O  0.03244012  0.75111816  0.61266923    -0.87800
C830        C  0.40485301  0.74919900  0.96992179     0.84500
C831        C  0.50717062  0.76135549  0.88237178     1.06000
H832        H  0.45765300  0.76863195  0.54575226     0.37800
O833        O  0.48952168  0.76520082  0.53623028    -1.10400
O834        O  0.06762910  0.72915672  0.53553073    -0.67100
Ni835      Ni  0.99945805  0.72528461  0.52562389     1.26300
O836        O  0.43283223  0.77028590  0.96402641    -0.67300
O837        O  0.98474591  0.71747257  0.59072288    -0.79600
C838        C  0.48940297  0.67021728  0.48097622     0.83800
O839        O  0.00816870  0.68669756  0.51349742    -0.66800
Ni840      Ni  0.03196501  0.78450268  0.58175954     1.27400
Ni841      Ni  0.50094838  0.77443101  0.97381356     1.26100
H842        H  0.04328744  0.73129097  0.95322319     0.38400
O843        O  0.45443758  0.67905627  0.72523518    -0.81600
O844        O  0.47731382  0.81193958  0.73322150    -0.66300
O845        O  0.99258555  0.73304710  0.71401945    -1.12900
C846        C  0.04653941  0.74728367  0.86067514     1.05300
O847        O  0.04468004  0.82270817  0.77203129    -0.79500
O848        O  0.09749754  0.77829156  0.75232049    -0.67100
Ni849      Ni  0.43878652  0.71046414  0.69104573     1.34900
C850        C  0.10717385  0.75337054  0.74116456     0.84100
O851        O  0.46230117  0.77699556  0.65751012    -0.80000
O852        O  0.41962752  0.73989572  0.65478910    -0.90300
C853        C  0.00885029  0.82945961  0.74904242     0.83600
O854        O  0.40075609  0.72259900  0.74453713    -0.68500
O855        O  0.07958264  0.76146612  0.84269494    -0.87800
C856        C  0.39127311  0.74739464  0.75670338     0.84500
C857        C  0.45324813  0.75372237  0.63731238     1.06000
H858        H  0.47966384  0.77258182  0.80515502     0.37800
O859        O  0.50611798  0.76831613  0.78476483    -1.10400
O860        O  0.08027064  0.73264763  0.75228556    -0.67100
Ni861      Ni  0.01527336  0.72824586  0.77647023     1.26300
O862        O  0.41826620  0.76826126  0.74621165    -0.67300
O863        O  0.03745423  0.72404350  0.84052524    -0.79600
C864        C  0.48949586  0.67189414  0.74895811     0.83800
O865        O  0.02095471  0.68920002  0.76560491    -0.66800
Ni866      Ni  0.06038277  0.79099072  0.80635524     1.27400
Ni867      Ni  0.48346368  0.77296596  0.72218439     1.26100
H868        H  0.01952841  0.72879493  0.69392438     0.38400
O869        O  0.20597025  0.67793994  0.97601114    -0.81600
O870        O  0.22841549  0.81178147  0.98375657    -0.66300
O871        O  0.24362782  0.73259572  0.96432329    -1.12900
C872        C  0.29624411  0.74681623  0.61131128     1.05300
O873        O  0.29402659  0.82123295  0.52238575    -0.79500
O874        O  0.34848351  0.77788717  0.50379538    -0.67100
Ni875      Ni  0.18965146  0.70973493  0.94234606     1.34900
C876        C  0.35820490  0.75307264  0.49199098     0.84100
O877        O  0.21189414  0.77674426  0.90852311    -0.80000
O878        O  0.16983339  0.73932269  0.90662545    -0.90300
C879        C  0.26005307  0.82908759  0.00033907     0.83600
O880        O  0.15263539  0.72197739  0.99670101    -0.68500
O881        O  0.32950744  0.76095434  0.59384590    -0.87800
C882        C  0.14271126  0.74682008  0.00812671     0.84500
C883        C  0.20287630  0.75342654  0.88856013     1.06000
H884        H  0.22969945  0.77126018  0.55407695     0.37800
O885        O  0.25656378  0.76707877  0.53425952    -1.10400
O886        O  0.33154644  0.73219794  0.50289188    -0.67100
Ni887      Ni  0.26661620  0.72716246  0.52685546     1.26300
O888        O  0.16921082  0.76774312  0.99691114    -0.67300
O889        O  0.28802928  0.72344114  0.59139124    -0.79600
C890        C  0.24288288  0.67049317  0.50135059     0.83800
O891        O  0.27407750  0.68834812  0.51647453    -0.66800
Ni892      Ni  0.31001262  0.79006784  0.55702299     1.27400
Ni893      Ni  0.23419747  0.77263735  0.97265037     1.26100
H894        H  0.27035440  0.72836279  0.94417829     0.38400
O895        O  0.22058987  0.67934088  0.69469303    -0.81600
O896        O  0.23938591  0.81271117  0.73507445    -0.66300
O897        O  0.26031657  0.73450879  0.71193366    -1.12900
C898        C  0.24237491  0.73914937  0.86744036     1.05300
O899        O  0.27852561  0.82052294  0.80453491    -0.79500
O900        O  0.33315557  0.77611164  0.79234791    -0.67100
Ni901      Ni  0.21841578  0.71481498  0.66635597     1.34900
C902        C  0.34509293  0.75168209  0.78035366     0.84100
O903        O  0.26340833  0.78248825  0.65768300    -0.80000
O904        O  0.21688132  0.74826342  0.63546908    -0.90300
C905        C  0.25818885  0.82918507  0.76756763     0.83600
O906        O  0.16541987  0.72419011  0.70668802    -0.68500
O907        O  0.28178197  0.75168370  0.86331542    -0.87800
C908        C  0.15350421  0.74873874  0.71817358     0.84500
C909        C  0.25619748  0.76098279  0.63156585     1.06000
H910        H  0.20624830  0.76871787  0.79644989     0.37800
O911        O  0.23831242  0.76561468  0.78700284    -1.10400
O912        O  0.31745821  0.73046621  0.78646467    -0.67100
Ni913      Ni  0.24942057  0.72585606  0.77631833     1.26300
O914        O  0.18132837  0.76985731  0.71227704    -0.67300
O915        O  0.23471908  0.71774068  0.84121694    -0.79600
C916        C  0.24098044  0.67082190  0.73178188     0.83800
O917        O  0.25947084  0.68744323  0.76428489    -0.66800
Ni918      Ni  0.28026716  0.78517299  0.83274506     1.27400
Ni919      Ni  0.24920443  0.77430888  0.72265102     1.26100
H920        H  0.29234107  0.73138421  0.70254287     0.38400
O921        O  0.45489850  0.49730632  0.56867053    -0.75100
O922        O  0.45628502  0.99626244  0.92379415    -0.75100
O923        O  0.45992031  0.95692629  0.49407295    -0.75200
O924        O  0.45068951  0.53573717  0.49801702    -0.75200
O925        O  0.03013138  0.54099633  0.99819004    -0.75200
O926        O  0.03800536  0.96235769  0.99457412    -0.75200
O927        O  0.03391258  0.00085228  0.92372710    -0.75100
O928        O  0.03249086  0.00266695  0.56904114    -0.75200
Ni929      Ni  0.45264288  0.49617541  0.49613079     1.25400
Ni930      Ni  0.03660087  0.00180807  0.99622264     1.25400
C931        C  0.99357041  0.50022453  0.59312885     0.87100
C932        C  0.99510006  0.99867242  0.89946850     0.87000
C933        C  0.00041769  0.94694188  0.99442609     0.87000
C934        C  0.98818362  0.55127651  0.49794739     0.87200
O935        O  0.45596469  0.49799794  0.81893896    -0.75100
O936        O  0.45497841  0.99936769  0.67455649    -0.75100
O937        O  0.45537896  0.95934609  0.74168895    -0.75200
O938        O  0.45558189  0.53813355  0.75206379    -0.75200
O939        O  0.03337681  0.54108945  0.75050721    -0.75200
O940        O  0.03323073  0.96201014  0.74135055    -0.75200
O941        O  0.03269575  0.00184114  0.67370033    -0.75100
O942        O  0.03369364  0.00096695  0.81823249    -0.75200
Ni943      Ni  0.45282303  0.49868472  0.74679922     1.25400
Ni944      Ni  0.03595501  0.00155118  0.74591329     1.25400
C945        C  0.99494232  0.49918683  0.84281800     0.87100
C946        C  0.99369523  0.00057073  0.64983547     0.87000
C947        C  0.99449382  0.94755230  0.74040677     0.87000
C948        C  0.99407342  0.55274852  0.75255726     0.87200
O949        O  0.21510622  0.99968448  0.93386011    -0.75100
O950        O  0.21471063  0.49713444  0.57830341    -0.75100
O951        O  0.21355133  0.53762987  0.51200545    -0.75200
O952        O  0.21579939  0.95875493  0.49979870    -0.75200
O953        O  0.29519434  0.96307132  0.99968022    -0.75200
O954        O  0.29135935  0.54106116  0.51181414    -0.75200
O955        O  0.29243762  0.00057692  0.57816321    -0.75100
O956        O  0.29277186  0.00354587  0.93344988    -0.75200
Ni957      Ni  0.21206823  0.49813399  0.50602922     1.25400
Ni958      Ni  0.29569746  0.00264152  0.00566476     1.25400
C959        C  0.25386795  0.00185510  0.90937195     0.87100
C960        C  0.25353144  0.49866890  0.60254297     0.87000
C961        C  0.25180802  0.55246884  0.51403178     0.87000
C962        C  0.25708312  0.94807065  0.99733695     0.87200
O963        O  0.21466429  0.99725513  0.68363681    -0.75100
O964        O  0.21483499  0.50013749  0.82856711    -0.75100
O965        O  0.21273361  0.53814608  0.75651535    -0.75200
O966        O  0.21616962  0.95931342  0.75498181    -0.75200
O967        O  0.29424596  0.96268916  0.75581978    -0.75200
O968        O  0.29072710  0.54167880  0.75650995    -0.75200
O969        O  0.29256224  0.00373355  0.82830635    -0.75100
O970        O  0.29238821  0.00048191  0.68345043    -0.75200
Ni971      Ni  0.21193094  0.49860877  0.75603210     1.25400
Ni972      Ni  0.29517888  0.00226338  0.75596387     1.25400
C973        C  0.25354910  0.99867546  0.65921321     0.87100
C974        C  0.25371423  0.50202586  0.85275012     0.87000
C975        C  0.25105728  0.55289577  0.75573473     0.87000
C976        C  0.25574428  0.94807743  0.75605087     0.87200
C977        C  0.27447320  0.63086448  0.77172053    -0.27000
C978        C  0.24307482  0.64044006  0.73772236    -0.15100
C979        C  0.21364071  0.62082715  0.71092697     0.35600
C980        C  0.21730180  0.59250947  0.71774473    -0.26400
C981        C  0.24899773  0.58308703  0.75113475    -0.15700
C982        C  0.27757245  0.60246439  0.77892162     0.36600
N983        N  0.30755566  0.59346718  0.81623228    -0.89900
H984        H  0.29670051  0.64560218  0.79303859     0.17800
H985        H  0.19515991  0.57757744  0.69668174     0.17700
N986        N  0.17959404  0.62955942  0.67737706    -0.89000
H987        H  0.32438182  0.61043315  0.83499712     0.35100
H988        H  0.33396985  0.58219566  0.79932609     0.40200
H989        H  0.15440271  0.64013131  0.69788351     0.39800
H990        H  0.16189351  0.61252718  0.65971634     0.34700
C991        C  0.28357091  0.87726274  0.79590606    -0.27000
C992        C  0.25720312  0.85966805  0.76275864    -0.15100
C993        C  0.23067867  0.87167099  0.72654368     0.35600
C994        C  0.23016826  0.90064087  0.72565035    -0.26400
C995        C  0.25685873  0.91785238  0.75858066    -0.15700
C996        C  0.28363544  0.90611566  0.79423117     0.36600
N997        N  0.30991807  0.92356104  0.82936952    -0.89900
H998        H  0.30425875  0.86855329  0.82364397     0.17800
H999        H  0.20963606  0.90989493  0.69836254     0.17700
N1000       N  0.20434470  0.85468172  0.69082813    -0.89000
H1001       H  0.32804756  0.91168052  0.85295339     0.35100
H1002       H  0.28596024  0.93451296  0.85095664     0.40200
H1003       H  0.22843319  0.84494092  0.66758403     0.39800
H1004       H  0.18512722  0.86685191  0.66871676     0.34700
C1005       C  0.20469247  0.62559301  0.01536074    -0.27000
C1006       C  0.24753356  0.64103201  0.51060244    -0.15100
C1007       C  0.29076806  0.62819749  0.50690903     0.35600
C1008       C  0.29166029  0.59937404  0.51030681    -0.26400
C1009       C  0.25023886  0.58315535  0.51740393    -0.15700
C1010       C  0.20548245  0.59697758  0.01998141     0.36600
N1011       N  0.16243503  0.58143023  0.02869820    -0.89900
H1012       H  0.17145498  0.63549114  0.01773611     0.17800
H1013       H  0.32468244  0.58948236  0.50558039     0.17700
N1014       N  0.33323898  0.64421250  0.49800173    -0.89000
H1015       H  0.13399541  0.59422877  0.02926990     0.35100
H1016       H  0.16436001  0.57401691  0.06367258     0.40200
H1017       H  0.33119730  0.65147789  0.46292896     0.39800
H1018       H  0.36200235  0.63170828  0.49802939     0.34700
C1019       C  0.21428072  0.90043029  0.48863529    -0.27000
C1020       C  0.25834704  0.91737494  0.99233838    -0.15100
C1021       C  0.30097519  0.90363326  0.99015771     0.35600
C1022       C  0.29992327  0.87473898  0.99035062    -0.26400
C1023       C  0.25754732  0.85897457  0.99283207    -0.15700
C1024       C  0.21368735  0.87131895  0.48789843     0.36600
N1025       N  0.17000689  0.85539423  0.48550961    -0.89900
H1026       H  0.18131007  0.91051713  0.48752278     0.17800
H1027       H  0.33278181  0.86441592  0.98952274     0.17700
N1028       N  0.34532284  0.91887156  0.98917460    -0.89000
H1029       H  0.14195640  0.86831399  0.48289408     0.35100
H1030       H  0.16572814  0.84569860  0.51844908     0.40200
H1031       H  0.34849321  0.92749583  0.95513638     0.39800
H1032       H  0.37298745  0.90567260  0.99159994     0.34700
C1033       C  0.03398664  0.59986643  0.76488518    -0.27000
C1034       C  0.99277056  0.58343320  0.75494910    -0.15100
C1035       C  0.45066406  0.59661938  0.74671307     0.35600
C1036       C  0.45071323  0.62542444  0.74887506    -0.26400
C1037       C  0.49205317  0.64188930  0.75620600    -0.15700
C1038       C  0.03411424  0.62899270  0.76568780     0.36600
N1039       N  0.07688818  0.64523006  0.77456646    -0.89900
H1040       H  0.06636262  0.58998109  0.77156865     0.17800
H1041       H  0.41800331  0.63506462  0.74262147     0.17700
N1042       N  0.40811342  0.58090752  0.73405662    -0.89000
H1043       H  0.10491312  0.63244168  0.77851085     0.35100
H1044       H  0.07320239  0.65624404  0.80814544     0.40200
H1045       H  0.41327711  0.57105951  0.69967032     0.39800
H1046       H  0.38041038  0.59390069  0.72989851     0.34700
C1047       C  0.03912182  0.90494797  0.73014625    -0.27000
C1048       C  0.99575752  0.91690358  0.73866372    -0.15100
C1049       C  0.45564910  0.89944564  0.74721641     0.35600
C1050       C  0.46027574  0.87068398  0.74747498    -0.26400
C1051       C  0.00415559  0.85912545  0.74139015    -0.15700
C1052       C  0.04388227  0.87642361  0.73190587     0.36600
N1053       N  0.08912615  0.86500685  0.72459762    -0.89900
H1054       H  0.06995432  0.91795969  0.72290539     0.17800
H1055       H  0.42991676  0.85736577  0.75517084     0.17700
N1056       N  0.41077218  0.91081106  0.75728998    -0.89000
H1057       H  0.11478256  0.88062741  0.71914325     0.35100
H1058       H  0.08767282  0.85234927  0.69247280     0.40200
H1059       H  0.41300788  0.92171933  0.79123867     0.39800
H1060       H  0.38498206  0.89505081  0.76102670     0.34700
C1061       C  0.02302966  0.59908156  0.01933838    -0.27000
C1062       C  0.98579864  0.58169442  0.49611134    -0.15100
C1063       C  0.45147673  0.59408611  0.46875366     0.35600
C1064       C  0.45405903  0.62271606  0.46406761    -0.26400
C1065       C  0.48956893  0.63981994  0.48679995    -0.15700
C1066       C  0.02483270  0.62785685  0.01625364     0.36600
N1067       N  0.06247226  0.64340865  0.04062729    -0.89900
H1068       H  0.04951822  0.58983959  0.04034915     0.17800
H1069       H  0.42783001  0.63165074  0.44225702     0.17700
N1070       N  0.41472009  0.57815720  0.44358379    -0.89000
H1071       H  0.04861451  0.65668908  0.06776259     0.35100
H1072       H  0.08102311  0.65495027  0.01514135     0.40200
H1073       H  0.39386289  0.56808135  0.46917008     0.39800
H1074       H  0.42970297  0.56342353  0.41975546     0.34700
C1075       C  0.48018921  0.86910293  0.97657971    -0.27000
C1076       C  0.00883686  0.85974468  0.01336980    -0.15100
C1077       C  0.03552965  0.87975934  0.04270359     0.35600
C1078       C  0.03313344  0.90780905  0.03435258    -0.26400
C1079       C  0.00393720  0.91690661  0.99838697    -0.15700
C1080       C  0.47749120  0.89741988  0.96882126     0.36600
N1081       N  0.44482764  0.90665496  0.43383503    -0.89900
H1082       H  0.45643753  0.85429255  0.45509433     0.17800
H1083       H  0.05335867  0.92279420  0.05735877     0.19300
N1084       N  0.06520767  0.87263155  0.08149712    -0.89000
H1085       H  0.43121540  0.88951330  0.91225906     0.35100
H1086       H  0.47075313  0.91563911  0.90502451     0.40200
H1087       H  0.09031903  0.85933516  0.06742566     0.39800
H1088       H  0.04478070  0.86293153  0.10790500     0.34700
O1089       O  0.96913056  0.17881891  0.44389077    -0.81600
O1090       O  0.99139084  0.31229150  0.48416612    -0.66300
O1091       O  0.51043046  0.23374791  0.46115892    -1.12900
C1092       C  0.49360004  0.23952296  0.11794654     1.05300
O1093       O  0.53095479  0.32062056  0.05586337    -0.79500
O1094       O  0.58499854  0.27573521  0.04354655    -0.67100
Ni1095     Ni  0.96805882  0.21433174  0.41560186     1.34900
C1096       C  0.59658700  0.25121967  0.03156686     0.84100
O1097       O  0.01444383  0.28175771  0.40685840    -0.80000
O1098       O  0.96719974  0.24784347  0.38495550    -0.90300
C1099       C  0.51071681  0.32868448  0.51657173     0.83600
O1100       O  0.91561503  0.22402049  0.45617348    -0.68500
O1101       O  0.53334505  0.25170011  0.11431549    -0.87800
C1102       C  0.90419769  0.24857468  0.46817667     0.84500
C1103       C  0.00677345  0.26022761  0.38099373     1.06000
H1104       H  0.95825700  0.26915321  0.04742668     0.37800
O1105       O  0.99020360  0.26580467  0.03808974    -1.10400
O1106       O  0.56863931  0.23010186  0.03735539    -0.67100
Ni1107     Ni  0.50055050  0.22591845  0.02734750     1.26300
O1108       O  0.93215360  0.26963945  0.46204299    -0.67300
O1109       O  0.48602715  0.21789782  0.09230169    -0.79600
C1110       C  0.99063283  0.17090337  0.98286676     0.83800
O1111       O  0.50968713  0.18737958  0.01518937    -0.66800
Ni1112     Ni  0.53234522  0.28518797  0.08391007     1.27400
Ni1113     Ni  0.00025941  0.27372212  0.47182907     1.26100
H1114       H  0.54236206  0.23035517  0.45173129     0.38400
O1115       O  0.95404434  0.17854143  0.22225666    -0.81600
O1116       O  0.97959563  0.31144099  0.23419135    -0.66300
O1117       O  0.49311228  0.23250873  0.21356316    -1.12900
C1118       C  0.54631371  0.24579020  0.36039962     1.05300
O1119       O  0.54718871  0.32164464  0.27283282    -0.79500
O1120       O  0.59830577  0.27688902  0.25301078    -0.67100
Ni1121     Ni  0.93887499  0.21060321  0.18984222     1.34900
C1122       C  0.60758321  0.25198137  0.24146887     0.84100
O1123       O  0.96332275  0.27744845  0.15824398    -0.80000
O1124       O  0.92013136  0.24062672  0.15493536    -0.90300
C1125       C  0.51154590  0.32867652  0.24988501     0.83600
O1126       O  0.90196835  0.22253539  0.24422380    -0.68500
O1127       O  0.57994976  0.25977821  0.34309330    -0.87800
C1128       C  0.89260099  0.24733443  0.25653908     0.84500
C1129       C  0.95404840  0.25432919  0.13781375     1.06000
H1130       H  0.98059858  0.27196514  0.30455880     0.37800
O1131       O  0.00721415  0.26738611  0.28465013    -1.10400
O1132       O  0.58047179  0.23125758  0.25219630    -0.67100
Ni1133     Ni  0.51526056  0.22716735  0.27595773     1.26300
O1134       O  0.91966216  0.26819497  0.24630730    -0.67300
O1135       O  0.53716677  0.22258283  0.34005592    -0.79600
C1136       C  0.98888657  0.17084393  0.24562945     0.83800
O1137       O  0.51986057  0.18793158  0.26424400    -0.66800
Ni1138     Ni  0.56167468  0.28965053  0.30703554     1.27400
Ni1139     Ni  0.98486088  0.27257778  0.22238866     1.26100
H1140       H  0.52016257  0.22796112  0.19387958     0.38400
O1141       O  0.70656949  0.17679024  0.47860353    -0.81600
O1142       O  0.72781899  0.31054111  0.48128846    -0.66300
O1143       O  0.74385529  0.23126269  0.46423114    -1.12900
C1144       C  0.79579018  0.24679476  0.11166059     1.05300
O1145       O  0.79530454  0.32202629  0.02395083    -0.79500
O1146       O  0.84935200  0.27845349  0.00576677    -0.67100
Ni1147     Ni  0.69059067  0.20780172  0.44244450     1.34900
C1148       C  0.85865754  0.25365881  0.99325449     0.84100
O1149       O  0.71157525  0.27470998  0.40716812    -0.80000
O1150       O  0.67116760  0.23662211  0.40447146    -0.90300
C1151       C  0.75898538  0.32807429  0.49822908     0.83600
O1152       O  0.65186922  0.22064454  0.49509075    -0.68500
O1153       O  0.82926875  0.26121024  0.09525500    -0.87800
C1154       C  0.64208154  0.24554038  0.50632206     0.84500
C1155       C  0.70406104  0.25124665  0.38721353     1.06000
H1156       H  0.73007854  0.27211951  0.05480634     0.37800
O1157       O  0.75696992  0.26786337  0.03508132    -1.10400
O1158       O  0.83139111  0.23279786  0.00296823    -0.67100
Ni1159     Ni  0.76635260  0.22788080  0.02677225     1.26300
O1160       O  0.66892487  0.26638281  0.49545684    -0.67300
O1161       O  0.78804260  0.22357080  0.09099146    -0.79600
C1162       C  0.74176086  0.17131180  0.99925879     0.83800
O1163       O  0.77282968  0.18896004  0.01560568    -0.66800
Ni1164     Ni  0.81044949  0.29060517  0.05859045     1.27400
Ni1165     Ni  0.73391612  0.27127986  0.47142952     1.26100
H1166       H  0.77068214  0.22700154  0.44423587     0.38400
O1167       O  0.72140144  0.17872509  0.19434629    -0.81600
O1168       O  0.73845386  0.31208515  0.23533198    -0.66300
O1169       O  0.76086200  0.23409469  0.21125562    -1.12900
C1170       C  0.74461232  0.23776010  0.36681532     1.05300
O1171       O  0.77868330  0.31999694  0.30404795    -0.79500
O1172       O  0.83411035  0.27587825  0.29194455    -0.67100
Ni1173     Ni  0.71873944  0.21414506  0.16599030     1.34900
C1174       C  0.84637662  0.25153576  0.27977809     0.84100
O1175       O  0.76193922  0.28224580  0.15750531    -0.80000
O1176       O  0.71629154  0.24760291  0.13525168    -0.90300
C1177       C  0.75787008  0.32864036  0.26730404     0.83600
O1178       O  0.66589094  0.22309485  0.20664375    -0.68500
O1179       O  0.78344452  0.25102747  0.36301415    -0.87800
C1180       C  0.65376910  0.24753330  0.21844066     0.84500
C1181       C  0.75532311  0.26064331  0.13152759     1.06000
H1182       H  0.70708321  0.26752172  0.29664912     0.37800
O1183       O  0.73916423  0.26473953  0.28691052    -1.10400
O1184       O  0.81901816  0.23018804  0.28526116    -0.67100
Ni1185     Ni  0.75122521  0.22510722  0.27554875     1.26300
O1186       O  0.68124203  0.26881273  0.21275683    -0.67300
O1187       O  0.73811505  0.21634888  0.34037847    -0.79600
C1188       C  0.74296972  0.17038457  0.23082351     0.83800
O1189       O  0.76242045  0.18701757  0.26260338    -0.66800
Ni1190     Ni  0.78104926  0.28458299  0.33238937     1.27400
Ni1191     Ni  0.74900867  0.27376472  0.22251025     1.26100
H1192       H  0.79288436  0.23121858  0.20157059     0.38400
O1193       O  0.95626261  0.99742921  0.06868524    -0.75100
O1194       O  0.95592152  0.49561059  0.42378144    -0.75100
O1195       O  0.96005489  0.45735156  0.99349055    -0.75200
O1196       O  0.95229144  0.03627296  0.99823709    -0.75200
O1197       O  0.52856057  0.04081426  0.49852288    -0.75200
O1198       O  0.53775436  0.46231153  0.49542357    -0.75200
O1199       O  0.53350370  0.50060173  0.42427579    -0.75100
O1200       O  0.53384701  0.50238113  0.06855027    -0.75200
Ni1201     Ni  0.95353654  0.99665418  0.99611313     1.25400
Ni1202     Ni  0.53566484  0.50175686  0.49674160     1.25400
C1203       C  0.49506942  0.99985305  0.09300976     0.87100
C1204       C  0.49489062  0.49817106  0.39972107     0.87000
C1205       C  0.50039493  0.44667760  0.49488432     0.87000
C1206       C  0.48995792  0.05165800  0.99788815     0.87200
O1207       O  0.95645805  0.99718165  0.31893237    -0.75100
O1208       O  0.95641948  0.49800628  0.17426844    -0.75100
O1209       O  0.95719583  0.45819046  0.24218460    -0.75200
O1210       O  0.95609818  0.03703382  0.25104636    -0.75200
O1211       O  0.53404327  0.04008462  0.25032177    -0.75200
O1212       O  0.53502835  0.46122331  0.24231827    -0.75200
O1213       O  0.53411799  0.50082289  0.17382621    -0.75100
O1214       O  0.53414514  0.50037832  0.31872427    -0.75200
Ni1215     Ni  0.95388011  0.99754347  0.24669259     1.25400
Ni1216     Ni  0.53700579  0.50070085  0.24629116     1.25400
C1217       C  0.49525085  0.99853738  0.34315413     0.87100
C1218       C  0.49520778  0.49958568  0.14969771     0.87000
C1219       C  0.49651472  0.44659536  0.24132899     0.87000
C1220       C  0.49467538  0.05160759  0.25099289     0.87200
O1221       O  0.71490930  0.49938134  0.43379040    -0.75100
O1222       O  0.71565680  0.99762795  0.07831787    -0.75100
O1223       O  0.71299236  0.03796298  0.01170577    -0.75200
O1224       O  0.71745039  0.45930894  0.00000074    -0.75200
O1225       O  0.79348511  0.46213408  0.50015241    -0.75200
O1226       O  0.79074468  0.04200706  0.01148683    -0.75200
O1227       O  0.79331535  0.50147330  0.07794750    -0.75100
O1228       O  0.79260296  0.50253662  0.43371713    -0.75200
Ni1229     Ni  0.71267384  0.99852674  0.00606001     1.25400
Ni1230     Ni  0.79512413  0.50165579  0.50596707     1.25400
C1231       C  0.75382271  0.50119040  0.40944446     0.87100
C1232       C  0.75454253  0.99929910  0.10244269     0.87000
C1233       C  0.75089142  0.05310845  0.01329409     0.87000
C1234       C  0.75522271  0.44729824  0.49756607     0.87200
O1235       O  0.71564656  0.49767009  0.18350430    -0.75100
O1236       O  0.71527352  0.99968273  0.32837934    -0.75100
O1237       O  0.71415660  0.03813557  0.25717235    -0.75200
O1238       O  0.71651144  0.45913000  0.25396624    -0.75200
O1239       O  0.79457137  0.46229917  0.25509814    -0.75200
O1240       O  0.79207951  0.04130073  0.25711857    -0.75200
O1241       O  0.79295578  0.50301303  0.32845716    -0.75100
O1242       O  0.79336912  0.50059025  0.18346765    -0.75200
Ni1243     Ni  0.71273380  0.99856091  0.25585165     1.25400
Ni1244     Ni  0.79591398  0.50189904  0.25603484     1.25400
C1245       C  0.75456805  0.49908561  0.15914859     0.87100
C1246       C  0.75403257  0.00141253  0.35274754     0.87000
C1247       C  0.75265184  0.05275528  0.25635494     0.87000
C1248       C  0.75599289  0.44774719  0.25490513     0.87200
C1249       C  0.78199518  0.13049814  0.26425781    -0.27000
C1250       C  0.74516639  0.14020920  0.23711231    -0.15100
C1251       C  0.71048269  0.12103725  0.21765749     0.35600
C1252       C  0.71382470  0.09280860  0.22520347    -0.26400
C1253       C  0.75097163  0.08303362  0.25159210    -0.15700
C1254       C  0.78557560  0.10215345  0.27139163     0.36600
N1255       N  0.82327512  0.09301573  0.29998523    -0.89900
H1256       H  0.80854950  0.14508169  0.27955060     0.17800
H1257       H  0.68731112  0.07823257  0.20979674     0.17700
N1258       N  0.67160419  0.13020310  0.19082647    -0.89000
H1259       H  0.84357269  0.10991724  0.31467524     0.35100
H1260       H  0.84547588  0.08207407  0.27639466     0.40200
H1261       H  0.65150656  0.14220027  0.21507964     0.39800
H1262       H  0.64979768  0.11342962  0.17830071     0.34700
C1263       C  0.78379955  0.37684687  0.29475764    -0.27000
C1264       C  0.75710718  0.35917167  0.26203789    -0.15100
C1265       C  0.73081552  0.37114492  0.22554532     0.35600
C1266       C  0.73025974  0.40015179  0.22450213    -0.26400
C1267       C  0.75704833  0.41744260  0.25726938    -0.15700
C1268       C  0.78416402  0.40570456  0.29266316     0.36600
N1269       N  0.81117491  0.42317955  0.32714926    -0.89900
H1270       H  0.80458126  0.36818875  0.32247118     0.17800
H1271       H  0.70970312  0.40935864  0.19718051     0.17700
N1272       N  0.70493628  0.35408564  0.18956694    -0.89000
H1273       H  0.82956554  0.41133019  0.35055725     0.35100
H1274       H  0.78769512  0.43433477  0.34901108     0.40200
H1275       H  0.72931838  0.34421963  0.16685672     0.39800
H1276       H  0.68618087  0.36621779  0.16695986     0.34700
C1277       C  0.70673658  0.12516586  0.52079394    -0.27000
C1278       C  0.74591602  0.14166040  0.00768723    -0.15100
C1279       C  0.78930768  0.12894310  0.00633384     0.35600
C1280       C  0.79020375  0.10016471  0.01028549    -0.26400
C1281       C  0.74864357  0.08378161  0.01550334    -0.15700
C1282       C  0.70760033  0.09654576  0.52505169     0.36600
N1283       N  0.66510650  0.08116048  0.53661140    -0.89900
H1284       H  0.67374587  0.13521008  0.52516811     0.17800
H1285       H  0.82352753  0.09043053  0.00761947     0.17700
N1286       N  0.83208296  0.14503862  0.99926933    -0.89000
H1287       H  0.63687769  0.09410833  0.53974067     0.35100
H1288       H  0.66940819  0.07346740  0.57108212     0.40200
H1289       H  0.83138583  0.15234678  0.96413739     0.39800
H1290       H  0.86090147  0.13261144  0.00042336     0.34700
C1291       C  0.71580107  0.40142375  0.99204108    -0.27000
C1292       C  0.75653339  0.41657335  0.49245325    -0.15100
C1293       C  0.79929429  0.40299299  0.49277116     0.35600
C1294       C  0.79848797  0.37411546  0.49199437    -0.26400
C1295       C  0.75627653  0.35804892  0.49097304    -0.15700
C1296       C  0.71492938  0.37241955  0.99277558     0.36600
N1297       N  0.67105075  0.35682995  0.99552848    -0.89900
H1298       H  0.68286158  0.41162220  0.99312166     0.17800
H1299       H  0.83149370  0.36403087  0.49309551     0.17700
N1300       N  0.84356127  0.41836775  0.49523699    -0.89000
H1301       H  0.64299136  0.36986236  0.99442231     0.35100
H1302       H  0.66942205  0.34813321  0.02957523     0.40200
H1303       H  0.84901614  0.42714523  0.46157149     0.39800
H1304       H  0.87108770  0.40527479  0.49954501     0.34700
C1305       C  0.53192850  0.09892317  0.26780053    -0.27000
C1306       C  0.49348311  0.08208791  0.25047190    -0.15100
C1307       C  0.95446177  0.09454743  0.23147814     0.35600
C1308       C  0.95364301  0.12333455  0.23261077    -0.26400
C1309       C  0.99183494  0.14046580  0.24992679    -0.15700
C1310       C  0.53165890  0.12799416  0.26765245     0.36600
N1311       N  0.57190557  0.14460204  0.28451120    -0.89900
H1312       H  0.56225836  0.08937432  0.28171279     0.17800
H1313       H  0.92293065  0.13233598  0.21841562     0.17700
N1314       N  0.91640144  0.07798367  0.20931992    -0.89000
H1315       H  0.59904714  0.13209557  0.29345146     0.35100
H1316       H  0.56236138  0.15527375  0.31697406     0.40200
H1317       H  0.92959838  0.06761932  0.17806769     0.39800
H1318       H  0.89031217  0.09038710  0.19735830     0.34700
C1319       C  0.54196749  0.40422220  0.23215368    -0.27000
C1320       C  0.49828302  0.41599189  0.23983560    -0.15100
C1321       C  0.95813395  0.39836448  0.24711802     0.35600
C1322       C  0.96307529  0.36969180  0.24768188    -0.26400
C1323       C  0.50712261  0.35831487  0.24239633    -0.15700
C1324       C  0.54684002  0.37567259  0.23331305     0.36600
N1325       N  0.59201358  0.36427131  0.22534220    -0.89900
H1326       H  0.57282116  0.41735611  0.22559771     0.17800
H1327       H  0.93266316  0.35626585  0.25467120     0.17700
N1328       N  0.91274395  0.40944579  0.25521095    -0.89000
H1329       H  0.61758496  0.37994559  0.21994028     0.35100
H1330       H  0.59026613  0.35185353  0.19293678     0.40200
H1331       H  0.91341910  0.42023672  0.28930298     0.39800
H1332       H  0.88696815  0.39354763  0.25760573     0.34700
C1333       C  0.52170233  0.09865749  0.51835460    -0.27000
C1334       C  0.48776561  0.08213375  0.99617514    -0.15100
C1335       C  0.95342102  0.09466164  0.96903859     0.35600
C1336       C  0.95567424  0.12335993  0.96515131    -0.26400
C1337       C  0.99083309  0.14044812  0.98853825    -0.15700
C1338       C  0.52408104  0.12731737  0.51405513     0.36600
N1339       N  0.56316703  0.14277657  0.53594459    -0.89900
H1340       H  0.54859162  0.08949047  0.53895646     0.17800
H1341       H  0.92932436  0.13236648  0.94359161     0.17700
N1342       N  0.91675017  0.07883963  0.94354173    -0.89000
H1343       H  0.55100463  0.15661817  0.56315851     0.35100
H1344       H  0.58085672  0.15369571  0.50903119     0.40200
H1345       H  0.89574239  0.06868575  0.96891714     0.39800
H1346       H  0.93179085  0.06420076  0.91956770     0.34700
C1347       C  0.97875342  0.36886994  0.47650920    -0.27000
C1348       C  0.50940511  0.35913749  0.51107976    -0.15100
C1349       C  0.53836677  0.37884353  0.53864625     0.35600
C1350       C  0.53581966  0.40700416  0.53112750    -0.26400
C1351       C  0.50428319  0.41652628  0.49776979    -0.15700
C1352       C  0.97593799  0.39728800  0.46958469     0.36600
N1353       N  0.94875619  0.40640051  0.93043405    -0.89900
H1354       H  0.95975826  0.35428778  0.95347420     0.17800
H1355       H  0.55773644  0.42172395  0.55291274     0.19300
N1356       N  0.57057922  0.37126292  0.57481183    -0.89000
H1357       H  0.92638174  0.38992180  0.41598482     0.35100
H1358       H  0.96566483  0.41592128  0.40683009     0.40200
H1359       H  0.59383432  0.35744962  0.55870062     0.39800
H1360       H  0.55185303  0.36193220  0.60284100     0.34700
O1361       O  0.97016836  0.17957472  0.94591744    -0.81600
O1362       O  0.99187175  0.31288563  0.98639633    -0.66300
O1363       O  0.51139868  0.23453954  0.96290387    -1.12900
C1364       C  0.49265232  0.23900054  0.61668783     1.05300
O1365       O  0.53111563  0.31985689  0.55326301    -0.79500
O1366       O  0.58445278  0.27471908  0.54133355    -0.67100
Ni1367     Ni  0.96898116  0.21511202  0.91751902     1.34900
C1368       C  0.59580216  0.25013971  0.52954183     0.84100
O1369       O  0.01516194  0.28259889  0.90889563    -0.80000
O1370       O  0.96786842  0.24869008  0.88679912    -0.90300
C1371       C  0.51062627  0.32934438  0.01902978     0.83600
O1372       O  0.91645164  0.22466528  0.95807027    -0.68500
O1373       O  0.53240965  0.25113707  0.61263801    -0.87800
C1374       C  0.90488539  0.24919436  0.96995370     0.84500
C1375       C  0.00720176  0.26132594  0.88239138     1.06000
H1376       H  0.95761585  0.26863851  0.54570993     0.37800
O1377       O  0.98948576  0.26520688  0.53619229    -1.10400
O1378       O  0.56759338  0.22916257  0.53553756    -0.67100
Ni1379     Ni  0.49942612  0.22528904  0.52561090     1.26300
O1380       O  0.93286665  0.27027800  0.96404646    -0.67300
O1381       O  0.48469142  0.21749569  0.59071484    -0.79600
C1382       C  0.98941057  0.17021542  0.48098205     0.83800
O1383       O  0.50814763  0.18669987  0.51350477    -0.66800
Ni1384     Ni  0.53192722  0.28451565  0.58170861     1.27400
Ni1385     Ni  0.00098214  0.27442061  0.97382920     1.26100
H1386       H  0.54331850  0.23127870  0.95325611     0.38400
O1387       O  0.95447334  0.17906180  0.72518346    -0.81600
O1388       O  0.97737408  0.31194722  0.73328904    -0.66300
O1389       O  0.49262145  0.23305465  0.71401345    -1.12900
C1390       C  0.54656769  0.24725574  0.86068490     1.05300
O1391       O  0.54476024  0.32269988  0.77206767    -0.79500
O1392       O  0.59755194  0.27827470  0.75235132    -0.67100
Ni1393     Ni  0.93880761  0.21048438  0.69104478     1.34900
C1394       C  0.60721575  0.25335408  0.74117639     0.84100
O1395       O  0.96233202  0.27702191  0.65754954    -0.80000
O1396       O  0.91963283  0.23993087  0.65483540    -0.90300
C1397       C  0.50892173  0.32946063  0.74910324     0.83600
O1398       O  0.90080975  0.22260604  0.74457106    -0.68500
O1399       O  0.57961741  0.26143944  0.84271767    -0.87800
C1400       C  0.89132063  0.24740115  0.75673337     0.84500
C1401       C  0.95324743  0.25375448  0.63734182     1.06000
H1402       H  0.97971716  0.27257200  0.80517993     0.37800
O1403       O  0.00616796  0.26830757  0.78478478    -1.10400
O1404       O  0.58030483  0.23263227  0.75228347    -0.67100
Ni1405     Ni  0.51530722  0.22823722  0.77646366     1.26300
O1406       O  0.91831300  0.26826870  0.74624484    -0.67300
O1407       O  0.53747858  0.22402010  0.84051829    -0.79600
C1408       C  0.98952744  0.17189030  0.74890209     0.83800
O1409       O  0.52098058  0.18919256  0.76557689    -0.66800
Ni1410     Ni  0.56043871  0.29097332  0.80638564     1.27400
Ni1411     Ni  0.98350889  0.27297444  0.72221419     1.26100
H1412       H  0.51955750  0.22880715  0.69390422     0.38400
O1413       O  0.70601372  0.17794652  0.97599075    -0.81600
O1414       O  0.72846130  0.31178701  0.98380430    -0.66300
O1415       O  0.74367023  0.23260368  0.96433379    -1.12900
C1416       C  0.79625466  0.24682111  0.61126626     1.05300
O1417       O  0.79401007  0.32122702  0.52228892    -0.79500
O1418       O  0.84846887  0.27787790  0.50371977    -0.67100
Ni1419     Ni  0.68969242  0.20974862  0.94234748     1.34900
C1420       C  0.85818785  0.25306205  0.49192218     0.84100
O1421       O  0.71195154  0.27676034  0.90854912    -0.80000
O1422       O  0.66987734  0.23934345  0.90664445    -0.90300
C1423       C  0.76008986  0.32909250  0.00040839     0.83600
O1424       O  0.65267896  0.22198467  0.99671206    -0.68500
O1425       O  0.82950722  0.26096385  0.59378898    -0.87800
C1426       C  0.64275441  0.24682696  0.00814411     0.84500
C1427       C  0.70292221  0.25344539  0.88857848     1.06000
H1428       H  0.72969402  0.27125902  0.55405289     0.37800
O1429       O  0.75654857  0.26707679  0.53422060    -1.10400
O1430       O  0.83152551  0.23219040  0.50283104    -0.67100
Ni1431     Ni  0.76660093  0.22716125  0.52682376     1.26300
O1432       O  0.66925330  0.26775030  0.99692991    -0.67300
O1433       O  0.78804230  0.22344529  0.59134923    -0.79600
C1434       C  0.74285019  0.17049295  0.50136865     0.83800
O1435       O  0.77405696  0.18834946  0.51645268    -0.66800
Ni1436     Ni  0.81000470  0.29006960  0.55694813     1.27400
Ni1437     Ni  0.73424333  0.27264446  0.97267858     1.26100
H1438       H  0.77039651  0.22837421  0.94418511     0.38400
O1439       O  0.72065078  0.17933814  0.69469032    -0.81600
O1440       O  0.73939380  0.31270480  0.73504623    -0.66300
O1441       O  0.76035521  0.23450849  0.71192340    -1.12900
C1442       C  0.74241250  0.23916543  0.86744470     1.05300
O1443       O  0.77855253  0.32052489  0.80449331    -0.79500
O1444       O  0.83319101  0.27611853  0.79234284    -0.67100
Ni1445     Ni  0.71845617  0.21480833  0.66634969     1.34900
C1446       C  0.84513262  0.25168839  0.78036319     0.84100
O1447       O  0.76342185  0.28248320  0.65766086    -0.80000
O1448       O  0.71689989  0.24825405  0.63545626    -0.90300
C1449       C  0.75820728  0.32918172  0.76752666     0.83600
O1450       O  0.66546115  0.22417553  0.70668936    -0.68500
O1451       O  0.78181873  0.25169870  0.86331258    -0.87800
C1452       C  0.65354016  0.24872307  0.71817445     0.84500
C1453       C  0.75620925  0.26097942  0.63154036     1.06000
H1454       H  0.70628170  0.26871884  0.79643862     0.37800
O1455       O  0.73834565  0.26561765  0.78698835    -1.10400
O1456       O  0.81749494  0.23047295  0.78646631    -0.67100
Ni1457     Ni  0.74945779  0.22586196  0.77631583     1.26300
O1458       O  0.68135497  0.26984377  0.71226542    -0.67300
O1459       O  0.73474936  0.21775678  0.84122016    -0.79600
C1460       C  0.74103419  0.17082661  0.73178932     0.83800
O1461       O  0.75951208  0.18745001  0.76429586    -0.66800
Ni1462     Ni  0.78029704  0.28518233  0.83272518     1.27400
Ni1463     Ni  0.74922871  0.27430608  0.72263209     1.26100
H1464       H  0.79238160  0.23138820  0.70253191     0.38400
O1465       O  0.95493600  0.99732751  0.56874700    -0.75100
O1466       O  0.95627769  0.49626992  0.92373157    -0.75100
O1467       O  0.95989168  0.45691623  0.49396720    -0.75200
O1468       O  0.95074487  0.03574494  0.49807011    -0.75200
O1469       O  0.53011480  0.04099565  0.99825976    -0.75200
O1470       O  0.53798755  0.46235282  0.99449496    -0.75200
O1471       O  0.53390572  0.50085204  0.92365117    -0.75100
O1472       O  0.53245142  0.50266066  0.56896776    -0.75200
Ni1473     Ni  0.95268032  0.99618400  0.49620977     1.25400
Ni1474     Ni  0.53660117  0.50180538  0.99614568     1.25400
C1475       C  0.49362278  0.00024035  0.59319735     0.87100
C1476       C  0.49509076  0.49867732  0.89939693     0.87000
C1477       C  0.50039523  0.44694061  0.99435337     0.87000
C1478       C  0.48826872  0.05128092  0.49797440     0.87200
O1479       O  0.95598040  0.99799664  0.81900547    -0.75100
O1480       O  0.95493643  0.49934426  0.67449539    -0.75100
O1481       O  0.95539010  0.45933496  0.74165906    -0.75200
O1482       O  0.95563613  0.03814084  0.75214464    -0.75200
O1483       O  0.53343961  0.04108123  0.75057333    -0.75200
O1484       O  0.53324720  0.46201965  0.74129070    -0.75200
O1485       O  0.53266355  0.50184620  0.67362626    -0.75100
O1486       O  0.53367765  0.50097852  0.81815981    -0.75200
Ni1487     Ni  0.95284460  0.99869527  0.74686562     1.25400
Ni1488     Ni  0.53593227  0.50156108  0.74584098     1.25400
C1489       C  0.49495741  0.99918012  0.84288237     0.87100
C1490       C  0.49366089  0.50055930  0.64976296     0.87000
C1491       C  0.49452114  0.44755212  0.74038251     0.87000
C1492       C  0.49414214  0.05274663  0.75260447     0.87200
O1493       O  0.71509620  0.49967650  0.93387395    -0.75100
O1494       O  0.71475593  0.99714011  0.57829781    -0.75100
O1495       O  0.71358300  0.03763667  0.51200739    -0.75200
O1496       O  0.71573656  0.45874819  0.49980814    -0.75200
O1497       O  0.79520872  0.46307641  0.99970820    -0.75200
O1498       O  0.79139100  0.04107548  0.51182117    -0.75200
O1499       O  0.79239092  0.50056642  0.57817108    -0.75100
O1500       O  0.79276138  0.50353937  0.93345349    -0.75200
Ni1501     Ni  0.71211152  0.99814160  0.50602336     1.25400
Ni1502     Ni  0.79569651  0.50264712  0.00567244     1.25400
C1503       C  0.75385452  0.50184492  0.90937912     0.87100
C1504       C  0.75357657  0.99867474  0.60253792     0.87000
C1505       C  0.75183591  0.05247863  0.51404911     0.87000
C1506       C  0.75709998  0.44807350  0.99736971     0.87200
O1507       O  0.71462182  0.49724440  0.68364315    -0.75100
O1508       O  0.71485833  0.00015725  0.82856199    -0.75100
O1509       O  0.71278861  0.03816077  0.75650710    -0.75200
O1510       O  0.71615745  0.45929855  0.75497038    -0.75200
O1511       O  0.79423333  0.46268908  0.75579683    -0.75200
O1512       O  0.79078125  0.04167991  0.75650124    -0.75200
O1513       O  0.79253713  0.50372564  0.82830474    -0.75100
O1514       O  0.79234555  0.50048649  0.68345033    -0.75200
Ni1515     Ni  0.71196352  0.99862436  0.75602919     1.25400
Ni1516     Ni  0.79514448  0.50226291  0.75596095     1.25400
C1517       C  0.75350443  0.49867205  0.65921746     0.87100
C1518       C  0.75373513  0.00203948  0.85274784     0.87000
C1519       C  0.75111856  0.05290473  0.75572658     0.87000
C1520       C  0.75573951  0.44806976  0.75601927     0.87200
C1521       C  0.77467393  0.13087036  0.77158245    -0.27000
C1522       C  0.74313338  0.14044952  0.73773472    -0.15100
C1523       C  0.71356155  0.12084655  0.71109200     0.35600
C1524       C  0.71722726  0.09252921  0.71789946    -0.26400
C1525       C  0.74906892  0.08309817  0.75113248    -0.15700
C1526       C  0.77778835  0.10247032  0.77877116     0.36600
N1527       N  0.80795016  0.09347002  0.81592143    -0.89900
H1528       H  0.79701018  0.14560539  0.79278081     0.17800
H1529       H  0.69497527  0.07760474  0.69694882     0.17700
N1530       N  0.67936918  0.12959100  0.67771402    -0.89000
H1531       H  0.82485137  0.11043479  0.83461561     0.35100
H1532       H  0.83429803  0.08220819  0.79886844     0.40200
H1533       H  0.65429939  0.14019518  0.69834071     0.39800
H1534       H  0.66155179  0.11256448  0.66016602     0.34700
C1535       C  0.78360463  0.37725726  0.79583886    -0.27000
C1536       C  0.75722570  0.35966215  0.76270364    -0.15100
C1537       C  0.73069804  0.37166229  0.72648825     0.35600
C1538       C  0.73018213  0.40063222  0.72559587    -0.26400
C1539       C  0.75687311  0.41784461  0.75852604    -0.15700
C1540       C  0.78366736  0.40610897  0.79416238     0.36600
N1541       N  0.80996579  0.42355469  0.82928722    -0.89900
H1542       H  0.80430179  0.36854929  0.82357081     0.17800
H1543       H  0.70964257  0.40988554  0.69831325     0.17700
N1544       N  0.70436617  0.35467045  0.69077401    -0.89000
H1545       H  0.82810938  0.41167483  0.85286029     0.35100
H1546       H  0.78601790  0.43450620  0.85088789     0.40200
H1547       H  0.72845574  0.34492564  0.66753665     0.39800
H1548       H  0.68515451  0.36683930  0.66865480     0.34700
C1549       C  0.70469736  0.12558125  0.01519232    -0.27000
C1550       C  0.74751468  0.14103620  0.51064227    -0.15100
C1551       C  0.79076039  0.12821230  0.50696724     0.35600
C1552       C  0.79166927  0.09938966  0.51035777    -0.26400
C1553       C  0.75025647  0.08316369  0.51745070    -0.15700
C1554       C  0.70547680  0.09696774  0.01982731     0.36600
N1555       N  0.66240151  0.08141539  0.02839276    -0.89900
H1556       H  0.67144857  0.13547068  0.01744376     0.17800
H1557       H  0.82469737  0.08950466  0.50562878     0.17700
N1558       N  0.83322741  0.14423743  0.49808893    -0.89000
H1559       H  0.63395656  0.09420689  0.02883433     0.35100
H1560       H  0.66420170  0.07401376  0.06338628     0.40200
H1561       H  0.83120358  0.15150249  0.46301454     0.39800
H1562       H  0.86200068  0.13174151  0.49813944     0.34700
C1563       C  0.71419962  0.40041886  0.48871443    -0.27000
C1564       C  0.75836673  0.41737749  0.99238298    -0.15100
C1565       C  0.80099486  0.40363549  0.99013338     0.35600
C1566       C  0.79994748  0.37474120  0.99035176    -0.26400
C1567       C  0.75757609  0.35897893  0.99290892    -0.15700
C1568       C  0.71361169  0.37130734  0.48796115     0.36600
N1569       N  0.66992836  0.35538244  0.48568375    -0.89900
H1570       H  0.68122308  0.41050609  0.48770007     0.17800
H1571       H  0.83280473  0.36441604  0.98947594     0.17700
N1572       N  0.84533831  0.41887334  0.98904227    -0.89000
H1573       H  0.64186977  0.36830181  0.48312775     0.35100
H1574       H  0.66572279  0.34569384  0.51863816     0.40200
H1575       H  0.84842866  0.42749811  0.95499908     0.39800
H1576       H  0.87301149  0.40567342  0.99139158     0.34700
C1577       C  0.53401312  0.09987136  0.76501619    -0.27000
C1578       C  0.49284289  0.08342753  0.75492268    -0.15100
C1579       C  0.95077069  0.09659653  0.74644160     0.35600
C1580       C  0.95079376  0.12539899  0.74858130    -0.26400
C1581       C  0.99208982  0.14187993  0.75611241    -0.15700
C1582       C  0.53412543  0.12899690  0.76578484     0.36600
N1583       N  0.57685777  0.14524616  0.77483482    -0.89900
H1584       H  0.56636134  0.08999464  0.77186277     0.17800
H1585       H  0.91810332  0.13502171  0.74215964     0.17700
N1586       N  0.90829757  0.08086657  0.73355046    -0.89000
H1587       H  0.60487233  0.13246604  0.77890329     0.35100
H1588       H  0.57303941  0.15626093  0.80839351     0.40200
H1589       H  0.91365621  0.07100611  0.69921094     0.39800
H1590       H  0.88060804  0.09384553  0.72920972     0.34700
C1591       C  0.53915940  0.40494729  0.73011091    -0.27000
C1592       C  0.49580649  0.41690478  0.73870210    -0.15100
C1593       C  0.95572488  0.39945111  0.74740203     0.35600
C1594       C  0.96035807  0.37069110  0.74767478    -0.26400
C1595       C  0.50422410  0.35912918  0.74147730    -0.15700
C1596       C  0.54393122  0.37642370  0.73190009     0.36600
N1597       N  0.58916457  0.36500436  0.72452159    -0.89900
H1598       H  0.56997171  0.41795707  0.72278211     0.17800
H1599       H  0.93001964  0.35737622  0.75546017     0.17700
N1600       N  0.91087558  0.41082136  0.75760993    -0.89000
H1601       H  0.61480782  0.38062305  0.71900300     0.35100
H1602       H  0.58765879  0.35233458  0.69241257     0.40200
H1603       H  0.91321733  0.42175138  0.79153273     0.39800
H1604       H  0.88510354  0.39506383  0.76146345     0.34700
C1605       C  0.52302642  0.09907068  0.01940990    -0.27000
C1606       C  0.48589456  0.08169952  0.49610432    -0.15100
C1607       C  0.95150751  0.09408335  0.46880345     0.35600
C1608       C  0.95406895  0.12271284  0.46411804    -0.26400
C1609       C  0.98960016  0.13982023  0.48680237    -0.15700
C1610       C  0.52484483  0.12784529  0.01632279     0.36600
N1611       N  0.56251240  0.14338910  0.04066263    -0.89900
H1612       H  0.54952332  0.08982389  0.04040270     0.17800
H1613       H  0.92780794  0.13164463  0.44234446     0.17700
N1614       N  0.91473409  0.07815024  0.44366856    -0.89000
H1615       H  0.54868339  0.15667682  0.06780435     0.35100
H1616       H  0.58105309  0.15492286  0.01515851     0.40200
H1617       H  0.89389850  0.06807528  0.46927329     0.39800
H1618       H  0.92970156  0.06341702  0.41982702     0.34700
C1619       C  0.98025448  0.36909340  0.97648124    -0.27000
C1620       C  0.50883489  0.35974527  0.01333962    -0.15100
C1621       C  0.53544513  0.37977147  0.04273215     0.35600
C1622       C  0.53303568  0.40781939  0.03437273    -0.26400
C1623       C  0.50390923  0.41690586  0.99833628    -0.15700
C1624       C  0.97754331  0.39741002  0.96871461     0.36600
N1625       N  0.94498212  0.40665039  0.43354713    -0.89900
H1626       H  0.95658338  0.35428559  0.45481201     0.17800
H1627       H  0.55319988  0.42281233  0.05742219     0.19300
N1628       N  0.56505294  0.37265790  0.08159437    -0.89000
H1629       H  0.93139408  0.38948724  0.91204494     0.35100
H1630       H  0.97091872  0.41563041  0.90490257     0.40200
H1631       H  0.59022104  0.35938258  0.06757916     0.39800
H1632       H  0.54458634  0.36294107  0.10795236     0.34700
O1633       O  0.96911598  0.67882908  0.44390025    -0.81600
O1634       O  0.99142524  0.81229783  0.48424070    -0.66300
O1635       O  0.51043563  0.73375446  0.46117065    -1.12900
C1636       C  0.49354894  0.73950657  0.11791357     1.05300
O1637       O  0.53092834  0.82061185  0.05588362    -0.79500
O1638       O  0.58495945  0.77572818  0.04353743    -0.67100
Ni1639     Ni  0.96804092  0.71434842  0.41562725     1.34900
C1640       C  0.59654401  0.75121386  0.03154686     0.84100
O1641       O  0.01443223  0.78177195  0.40689223    -0.80000
O1642       O  0.96716456  0.74786644  0.38499707    -0.90300
C1643       C  0.51074179  0.82868274  0.51666173     0.83600
O1644       O  0.91562192  0.72403575  0.45623017    -0.68500
O1645       O  0.53329930  0.75167673  0.11428412    -0.87800
C1646       C  0.90421194  0.74858959  0.46824419     0.84500
C1647       C  0.00673673  0.76024834  0.38101310     1.06000
H1648       H  0.95821815  0.76915506  0.04740203     0.37800
O1649       O  0.99016427  0.76580480  0.03806360    -1.10400
O1650       O  0.56859169  0.73009655  0.03732363    -0.67100
Ni1651     Ni  0.50050337  0.72591949  0.02730383     1.26300
O1652       O  0.93216894  0.76965414  0.46211322    -0.67300
O1653       O  0.48595961  0.71788908  0.09225126    -0.79600
C1654       C  0.99060579  0.67090947  0.98278655     0.83800
O1655       O  0.50963896  0.68738310  0.01512847    -0.66800
Ni1656     Ni  0.53230737  0.78517322  0.08390494     1.27400
Ni1657     Ni  0.00027896  0.77372882  0.47186962     1.26100
H1658       H  0.54236316  0.73036180  0.45172726     0.38400
O1659       O  0.95402719  0.67854374  0.22221400    -0.81600
O1660       O  0.97956530  0.81144272  0.23416018    -0.66300
O1661       O  0.49308459  0.73250964  0.21354358    -1.12900
C1662       C  0.54625882  0.74580529  0.36039935     1.05300
O1663       O  0.54714988  0.82164779  0.27280117    -0.79500
O1664       O  0.59826455  0.77689347  0.25300664    -0.67100
Ni1665     Ni  0.93884848  0.71060888  0.18981995     1.34900
C1666       C  0.60754516  0.75198568  0.24147434     0.84100
O1667       O  0.96331009  0.77744786  0.15821070    -0.80000
O1668       O  0.92009627  0.74063488  0.15492888    -0.90300
C1669       C  0.51151119  0.82867681  0.24984438     0.83600
O1670       O  0.90196014  0.72253721  0.24421663    -0.68500
O1671       O  0.57989604  0.75978941  0.34308744    -0.87800
C1672       C  0.89258224  0.74733636  0.25651627     0.84500
C1673       C  0.95401354  0.75432838  0.13778952     1.06000
H1674       H  0.98055691  0.77196546  0.30454798     0.37800
O1675       O  0.00717155  0.76739094  0.28463440    -1.10400
O1676       O  0.58043364  0.73126215  0.25220333    -0.67100
Ni1677     Ni  0.51521705  0.72717318  0.27594889     1.26300
O1678       O  0.91963357  0.76819797  0.24626975    -0.67300
O1679       O  0.53710077  0.72259732  0.34005892    -0.79600
C1680       C  0.98886132  0.67084675  0.24559909     0.83800
O1681       O  0.51981866  0.68793501  0.26424694    -0.66800
Ni1682     Ni  0.56162658  0.78965829  0.30701997     1.27400
Ni1683     Ni  0.98483416  0.77258042  0.22236314     1.26100
H1684       H  0.52013625  0.72796286  0.19386012     0.38400
O1685       O  0.70661714  0.67679565  0.47857203    -0.81600
O1686       O  0.72787051  0.81055251  0.48131860    -0.66300
O1687       O  0.74390029  0.73127224  0.46425452    -1.12900
C1688       C  0.79574706  0.74681268  0.11165185     1.05300
O1689       O  0.79527343  0.82202271  0.02387962    -0.79500
O1690       O  0.84932153  0.77845355  0.00574424    -0.67100
Ni1691     Ni  0.69063544  0.70781761  0.44244837     1.34900
C1692       C  0.85862449  0.75365912  0.99323088     0.84100
O1693       O  0.71165456  0.77472339  0.40718633    -0.80000
O1694       O  0.67121267  0.73664801  0.40450551    -0.90300
C1695       C  0.75902507  0.82808461  0.49829074     0.83600
O1696       O  0.65192165  0.72064957  0.49510909    -0.68500
O1697       O  0.82922391  0.76123012  0.09524624    -0.87800
C1698       C  0.64212179  0.74554417  0.50633541     0.84500
C1699       C  0.70411354  0.75126081  0.38723669     1.06000
H1700       H  0.73004611  0.77212274  0.05478599     0.37800
O1701       O  0.75693366  0.76786683  0.03505597    -1.10400
O1702       O  0.83135714  0.73279858  0.00294832    -0.67100
Ni1703     Ni  0.76631711  0.72788459  0.02676238     1.26300
O1704       O  0.66895747  0.76638968  0.49546323    -0.67300
O1705       O  0.78800768  0.72358662  0.09098549    -0.79600
C1706       C  0.74171961  0.67131174  0.99927039     0.83800
O1707       O  0.77279053  0.68896161  0.01561034    -0.66800
Ni1708     Ni  0.81041021  0.79061407  0.05855256     1.27400
Ni1709     Ni  0.73396186  0.77128909  0.47145997     1.26100
H1710       H  0.77073158  0.72701486  0.44426201     0.38400
O1711       O  0.72135806  0.67873126  0.19434034    -0.81600
O1712       O  0.73842448  0.81208825  0.23536371    -0.66300
O1713       O  0.76082265  0.73409970  0.21125441    -1.12900
C1714       C  0.74464465  0.73775834  0.36682777     1.05300
O1715       O  0.77865901  0.81999504  0.30407852    -0.79500
O1716       O  0.83409468  0.77587885  0.29192248    -0.67100
Ni1717     Ni  0.71869717  0.71415342  0.16598919     1.34900
C1718       C  0.84635882  0.75153626  0.27975218     0.84100
O1719       O  0.76189275  0.78225607  0.15751655    -0.80000
O1720       O  0.71624791  0.74761370  0.13525370    -0.90300
C1721       C  0.75783484  0.82864102  0.26734387     0.83600
O1722       O  0.66585174  0.72310105  0.20664647    -0.68500
O1723       O  0.78347892  0.75101827  0.36300300    -0.87800
C1724       C  0.65373365  0.74753861  0.21845423     0.84500
C1725       C  0.75527670  0.76065739  0.13152714     1.06000
H1726       H  0.70707183  0.76752237  0.29667373     0.37800
O1727       O  0.73915003  0.76473959  0.28692607    -1.10400
O1728       O  0.81900097  0.73018744  0.28523283    -0.67100
Ni1729     Ni  0.75120261  0.72510859  0.27555099     1.26300
O1730       O  0.68120938  0.76881843  0.21278386    -0.67300
O1731       O  0.73811942  0.71634979  0.34038847    -0.79600
C1732       C  0.74292325  0.67038572  0.23081558     0.83800
O1733       O  0.76238047  0.68701753  0.26259459    -0.66800
Ni1734     Ni  0.78105350  0.78457718  0.33239700     1.27400
Ni1735     Ni  0.74897689  0.77376903  0.22252396     1.26100
H1736       H  0.79284298  0.73122470  0.20155973     0.38400
O1737       O  0.95627551  0.49743369  0.06861857    -0.75100
O1738       O  0.95595215  0.99560513  0.42385748    -0.75100
O1739       O  0.96006811  0.95734897  0.99355904    -0.75200
O1740       O  0.95230827  0.53627945  0.99817130    -0.75200
O1741       O  0.52848024  0.54081763  0.49848079    -0.75200
O1742       O  0.53778388  0.96230479  0.49551858    -0.75200
O1743       O  0.53355355  0.00058525  0.42434173    -0.75100
O1744       O  0.53384355  0.00238535  0.06862178    -0.75200
Ni1745     Ni  0.95353937  0.49665968  0.99604735     1.25400
Ni1746     Ni  0.53571887  0.00175103  0.49681035     1.25400
C1747       C  0.49507319  0.49985328  0.09294035     0.87100
C1748       C  0.49493692  0.99816231  0.39979110     0.87000
C1749       C  0.50041532  0.94667885  0.49499925     0.87000
C1750       C  0.48997679  0.55166260  0.99781433     0.87200
O1751       O  0.95644529  0.49718186  0.31885511    -0.75100
O1752       O  0.95640635  0.99800946  0.17434346    -0.75100
O1753       O  0.95718383  0.95819339  0.24225549    -0.75200
O1754       O  0.95609128  0.53703155  0.25096843    -0.75200
O1755       O  0.53401340  0.54008963  0.25026022    -0.75200
O1756       O  0.53502821  0.96121795  0.24236672    -0.75200
O1757       O  0.53411986  0.00082104  0.17388812    -0.75100
O1758       O  0.53417661  0.00036815  0.31878388    -0.75200
Ni1759     Ni  0.95388188  0.49754099  0.24661592     1.25400
Ni1760     Ni  0.53702124  0.00069509  0.24634990     1.25400
C1761       C  0.49521458  0.49854304  0.34308538     0.87100
C1762       C  0.49520639  0.99958652  0.14976645     0.87000
C1763       C  0.49650921  0.94659536  0.24137853     0.87000
C1764       C  0.49464093  0.55160761  0.25093600     0.87200
O1765       O  0.71494856  0.99939255  0.43378704    -0.75100
O1766       O  0.71566042  0.49763534  0.07833183    -0.75100
O1767       O  0.71297105  0.53796282  0.01170537    -0.75200
O1768       O  0.71744030  0.95930962  0.99997438    -0.75200
O1769       O  0.79354118  0.96215124  0.50013391    -0.75200
O1770       O  0.79072377  0.54201094  0.01146980    -0.75200
O1771       O  0.79331257  0.00145602  0.07794037    -0.75100
O1772       O  0.79264143  0.00255935  0.43370742    -0.75200
Ni1773     Ni  0.71266815  0.49852546  0.00607270     1.25400
Ni1774     Ni  0.79516842  0.00167238  0.50595995     1.25400
C1775       C  0.75385882  0.00120676  0.40943676     0.87100
C1776       C  0.75454778  0.49931404  0.10245423     0.87000
C1777       C  0.75086852  0.55311009  0.01328211     0.87000
C1778       C  0.75528238  0.94731161  0.49756140     0.87200
O1779       O  0.71564239  0.99766810  0.18349691    -0.75100
O1780       O  0.71525151  0.49967241  0.32838298    -0.75100
O1781       O  0.71413142  0.53813268  0.25718377    -0.75200
O1782       O  0.71649246  0.95913431  0.25397170    -0.75200
O1783       O  0.79455355  0.96228677  0.25510930    -0.75200
O1784       O  0.79205587  0.54131254  0.25717052    -0.75200
O1785       O  0.79297777  0.00301882  0.32843757    -0.75100
O1786       O  0.79336581  0.00056160  0.18344840    -0.75200
Ni1787     Ni  0.71272760  0.49855668  0.25585645     1.25400
Ni1788     Ni  0.79592038  0.00188657  0.25601357     1.25400
C1789       C  0.75456228  0.99906895  0.15913556     0.87100
C1790       C  0.75400583  0.50140100  0.35275800     0.87000
C1791       C  0.75262205  0.55275832  0.25638499     0.87000
C1792       C  0.75596557  0.94774400  0.25492317     0.87200
C1793       C  0.78184102  0.63050978  0.26442580    -0.27000
C1794       C  0.74511970  0.64020663  0.23710270    -0.15100
C1795       C  0.71056130  0.62101338  0.21745044     0.35600
C1796       C  0.71390048  0.59278703  0.22502230    -0.26400
C1797       C  0.75093484  0.58303247  0.25160113    -0.15700
C1798       C  0.78543781  0.60216559  0.27155128     0.36600
N1799       N  0.82306447  0.59303739  0.30025803    -0.89900
H1800       H  0.80831200  0.64510278  0.27985291     0.17800
H1801       H  0.68747965  0.57819503  0.20948177     0.17700
N1802       N  0.67181300  0.63015163  0.19038638    -0.89000
H1803       H  0.84326849  0.60994568  0.31506872     0.35100
H1804       H  0.84537494  0.58214307  0.27671316     0.40200
H1805       H  0.65152808  0.64209717  0.21453766     0.39800
H1806       H  0.65013733  0.61336078  0.17767534     0.34700
C1807       C  0.78365486  0.87685182  0.29489105    -0.27000
C1808       C  0.75705306  0.85917299  0.26209570    -0.15100
C1809       C  0.73084266  0.87114306  0.22553491     0.35600
C1810       C  0.73028339  0.90014905  0.22448605    -0.26400
C1811       C  0.75699918  0.91744179  0.25731308    -0.15700
C1812       C  0.78402736  0.90570889  0.29278432     0.36600
N1813       N  0.81096609  0.92318880  0.32732462    -0.89900
H1814       H  0.80436634  0.86819745  0.32266605     0.17800
H1815       H  0.70979258  0.90935375  0.19710784     0.17700
N1816       N  0.70506058  0.85408150  0.18948423    -0.89000
H1817       H  0.82929962  0.91134299  0.35078717     0.35100
H1818       H  0.78744208  0.93434925  0.34912101     0.40200
H1819       H  0.72950427  0.84422791  0.16683364     0.39800
H1820       H  0.68634486  0.86621056  0.16683578     0.34700
C1821       C  0.70674447  0.62516756  0.52073684    -0.27000
C1822       C  0.74588236  0.64166217  0.00769634    -0.15100
C1823       C  0.78926573  0.62893769  0.00619936     0.35600
C1824       C  0.79016882  0.60016015  0.01014863    -0.26400
C1825       C  0.74862084  0.58378295  0.01548759    -0.15700
C1826       C  0.70758543  0.59654508  0.52497433     0.36600
N1827       N  0.66506963  0.58116592  0.53648032    -0.89900
H1828       H  0.67375941  0.63521843  0.52510762     0.17800
H1829       H  0.82348406  0.59042123  0.00737712     0.17700
N1830       N  0.83202020  0.64502532  0.99898083    -0.89000
H1831       H  0.63684161  0.59411656  0.53957104     0.35100
H1832       H  0.66932562  0.57347041  0.57095607     0.40200
H1833       H  0.83120786  0.65232981  0.96385157     0.39800
H1834       H  0.86083901  0.63259241  0.00003032     0.34700
C1835       C  0.71578374  0.90142231  0.99191676    -0.27000
C1836       C  0.75659956  0.91658658  0.49247315    -0.15100
C1837       C  0.79935506  0.90300757  0.49292229     0.35600
C1838       C  0.79854553  0.87413034  0.49215735    -0.26400
C1839       C  0.75633477  0.85806152  0.49103073    -0.15700
C1840       C  0.71490654  0.87241679  0.99263357     0.36600
N1841       N  0.67102181  0.85682584  0.99529459    -0.89900
H1842       H  0.68284505  0.91162123  0.99294324     0.17800
H1843       H  0.83154769  0.86404857  0.49335047     0.17700
N1844       N  0.84361621  0.91838383  0.49552088    -0.89000
H1845       H  0.64296646  0.86985885  0.99415099     0.35100
H1846       H  0.66933654  0.84811727  0.02932961     0.40200
H1847       H  0.84917965  0.92714829  0.46185960     0.39800
H1848       H  0.87112433  0.90529378  0.49994659     0.34700
C1849       C  0.53186517  0.59892324  0.26782317    -0.27000
C1850       C  0.49343906  0.58208847  0.25044155    -0.15100
C1851       C  0.95446174  0.59454646  0.23138447     0.35600
C1852       C  0.95365019  0.62333348  0.23249735    -0.26400
C1853       C  0.99181418  0.64046704  0.24987987    -0.15700
C1854       C  0.53159080  0.62799505  0.26769902     0.36600
N1855       N  0.57180281  0.64460385  0.28464978    -0.89900
H1856       H  0.56217905  0.58937318  0.28176861     0.17800
H1857       H  0.92295921  0.63233294  0.21825094     0.17700
N1858       N  0.91639970  0.57798080  0.20923250    -0.89000
H1859       H  0.59893538  0.63209922  0.29362383     0.35100
H1860       H  0.56219679  0.65526157  0.31710541     0.40200
H1861       H  0.92959372  0.56761573  0.17797917     0.39800
H1862       H  0.89030228  0.59038155  0.19728069     0.34700
C1863       C  0.54193832  0.90421730  0.23210314    -0.27000
C1864       C  0.49826590  0.91599190  0.23985235    -0.15100
C1865       C  0.95811498  0.89836839  0.24717795     0.35600
C1866       C  0.96305034  0.86969469  0.24770978    -0.26400
C1867       C  0.50708849  0.85831320  0.24235311    -0.15700
C1868       C  0.54680272  0.87566592  0.23323373     0.36600
N1869       N  0.59196424  0.86425773  0.22520382    -0.89900
H1870       H  0.57278896  0.91734870  0.22552102     0.17800
H1871       H  0.93264286  0.85626987  0.25472333     0.17700
N1872       N  0.91273660  0.90945378  0.25534009    -0.89000
H1873       H  0.61753533  0.87992761  0.21976761     0.35100
H1874       H  0.59017594  0.85183903  0.19280113     0.40200
H1875       H  0.91345436  0.92023799  0.28943834     0.39800
H1876       H  0.88695941  0.89355806  0.25775726     0.34700
C1877       C  0.52152027  0.59865009  0.51850745    -0.27000
C1878       C  0.48778743  0.58213825  0.99608504    -0.15100
C1879       C  0.95344317  0.59466063  0.96893664     0.35600
C1880       C  0.95568844  0.62335852  0.96504096    -0.26400
C1881       C  0.99082751  0.64045326  0.98844460    -0.15700
C1882       C  0.52391535  0.62731160  0.51423045     0.36600
N1883       N  0.56290006  0.64276896  0.53632398    -0.89900
H1884       H  0.54833294  0.58947994  0.53921275     0.17800
H1885       H  0.92934483  0.63236005  0.94346619     0.17700
N1886       N  0.91677917  0.57883320  0.94343899    -0.89000
H1887       H  0.55061299  0.65660012  0.56348673     0.35100
H1888       H  0.58071995  0.65369632  0.50950639     0.40200
H1889       H  0.89576784  0.56868236  0.96881541     0.39800
H1890       H  0.93182590  0.56419188  0.91947476     0.34700
C1891       C  0.97868051  0.86887400  0.47671662    -0.27000
C1892       C  0.50941279  0.85913627  0.51119882    -0.15100
C1893       C  0.53845271  0.87883619  0.53868598     0.35600
C1894       C  0.53589760  0.90699818  0.53117736    -0.26400
C1895       C  0.50428408  0.91652596  0.49790177    -0.15700
C1896       C  0.97586437  0.89729114  0.46979276     0.36600
N1897       N  0.94863932  0.90642120  0.93059894    -0.89900
H1898       H  0.95963693  0.85430476  0.95360804     0.17800
H1899       H  0.55787973  0.92171367  0.55289869     0.19300
N1900       N  0.57076423  0.87124596  0.57474759    -0.89000
H1901       H  0.92618117  0.88992801  0.41631960     0.35100
H1902       H  0.96546314  0.91591184  0.40705250     0.40200
H1903       H  0.59395438  0.85741929  0.55856077     0.39800
H1904       H  0.55211154  0.86192351  0.60283436     0.34700
O1905       O  0.97015285  0.67958382  0.94583187    -0.81600
O1906       O  0.99184243  0.81289340  0.98640241    -0.66300
O1907       O  0.51136724  0.73455161  0.96286719    -1.12900
C1908       C  0.49268352  0.73897494  0.61669672     1.05300
O1909       O  0.53114838  0.81984894  0.55334278    -0.79500
O1910       O  0.58449041  0.77471286  0.54137762    -0.67100
Ni1911     Ni  0.96895336  0.71513015  0.91746247     1.34900
C1912       C  0.59583826  0.75013652  0.52955628     0.84100
O1913       O  0.01512720  0.78262263  0.90888262    -0.80000
O1914       O  0.96783558  0.74871671  0.88676942    -0.90300
C1915       C  0.51060892  0.82934388  0.01905217     0.83600
O1916       O  0.91641960  0.72467150  0.95801985    -0.68500
O1917       O  0.53244091  0.75111552  0.61266767    -0.87800
C1918       C  0.90485166  0.74919847  0.96992146     0.84500
C1919       C  0.00716929  0.76135342  0.88236941     1.06000
H1920       H  0.95765515  0.76863399  0.54575173     0.37800
O1921       O  0.98952376  0.76520237  0.53623012    -1.10400
O1922       O  0.56762839  0.72915624  0.53552747    -0.67100
Ni1923     Ni  0.49945704  0.72528349  0.52562183     1.26300
O1924       O  0.93283073  0.77028525  0.96402419    -0.67300
O1925       O  0.48474610  0.71747037  0.59072094    -0.79600
C1926       C  0.98940360  0.67021778  0.48098106     0.83800
O1927       O  0.50816817  0.68669668  0.51349314    -0.66800
Ni1928     Ni  0.53196302  0.78450065  0.58176025     1.27400
Ni1929     Ni  0.00094714  0.77443045  0.97381019     1.26100
H1930       H  0.54328878  0.73129229  0.95322460     0.38400
O1931       O  0.95443481  0.67905647  0.72523059    -0.81600
O1932       O  0.97731521  0.81193982  0.73322374    -0.66300
O1933       O  0.49258694  0.73304686  0.71402142    -1.12900
C1934       C  0.54654056  0.74728593  0.86067712     1.05300
O1935       O  0.54467693  0.82270933  0.77203155    -0.79500
O1936       O  0.59749649  0.77829338  0.75232115    -0.67100
Ni1937     Ni  0.93878435  0.71046525  0.69104311     1.34900
C1938       C  0.60717390  0.75337238  0.74116639     0.84100
O1939       O  0.96229950  0.77699759  0.65751125    -0.80000
O1940       O  0.91962586  0.73989780  0.65478828    -0.90300
C1941       C  0.50884778  0.82945995  0.74904084     0.83600
O1942       O  0.90075481  0.72259961  0.74453559    -0.68500
O1943       O  0.57958303  0.76146846  0.84269589    -0.87800
C1944       C  0.89127292  0.74739521  0.75670360     0.84500
C1945       C  0.95324662  0.75372475  0.63731242     1.06000
H1946       H  0.97966505  0.77258135  0.80515373     0.37800
O1947       O  0.00611860  0.76831539  0.78476374    -1.10400
O1948       O  0.58027159  0.73264927  0.75228834    -0.67100
Ni1949     Ni  0.51527453  0.72824668  0.77647282     1.26300
O1950       O  0.91826648  0.76826179  0.74621268    -0.67300
O1951       O  0.53745555  0.72404549  0.84052816    -0.79600
C1952       C  0.98949307  0.67189388  0.74895308     0.83800
O1953       O  0.52095742  0.68920067  0.76560913    -0.66800
Ni1954     Ni  0.56038138  0.79099240  0.80635584     1.27400
Ni1955     Ni  0.98346359  0.77296636  0.72218432     1.26100
H1956       H  0.51952968  0.72879501  0.69392626     0.38400
O1957       O  0.70596941  0.67794217  0.97600419    -0.81600
O1958       O  0.72841763  0.81178332  0.98376017    -0.66300
O1959       O  0.74362773  0.73259766  0.96432386    -1.12900
C1960       C  0.79624489  0.74681803  0.61131329     1.05300
O1961       O  0.79402410  0.82123478  0.52238691    -0.79500
O1962       O  0.84848438  0.77788900  0.50379691    -0.67100
Ni1963     Ni  0.68965104  0.70973831  0.94234350     1.34900
C1964       C  0.85820636  0.75307438  0.49199301     0.84100
O1965       O  0.71189687  0.77674766  0.90852488    -0.80000
O1966       O  0.66983364  0.73932727  0.90662619    -0.90300
C1967       C  0.76005578  0.82908892  0.00034294     0.83600
O1968       O  0.65263589  0.72197952  0.99669994    -0.68500
O1969       O  0.82950769  0.76095644  0.59384748    -0.87800
C1970       C  0.64271195  0.74682204  0.00812747     0.84500
C1971       C  0.70287765  0.75343028  0.88856136     1.06000
H1972       H  0.72969910  0.77126096  0.55407835     0.37800
O1973       O  0.75656371  0.76707979  0.53426115    -1.10400
O1974       O  0.83154803  0.73219963  0.50289435    -0.67100
Ni1975     Ni  0.76661757  0.72716347  0.52685780     1.26300
O1976       O  0.66921139  0.76774533  0.99691257    -0.67300
O1977       O  0.78803069  0.72344274  0.59139374    -0.79600
C1978       C  0.74288411  0.67049380  0.50135417     0.83800
O1979       O  0.77407925  0.68834879  0.51647745    -0.66800
Ni1980     Ni  0.81001199  0.79006965  0.55702414     1.27400
Ni1981     Ni  0.73419863  0.77263937  0.97265235     1.26100
H1982       H  0.77035500  0.72836462  0.94417943     0.38400
O1983       O  0.72058842  0.67934216  0.69469610    -0.81600
O1984       O  0.73938737  0.81271250  0.73507654    -0.66300
O1985       O  0.76031640  0.73450992  0.71193599    -1.12900
C1986       C  0.74237554  0.73915188  0.86744248     1.05300
O1987       O  0.77852838  0.82052406  0.80453623    -0.79500
O1988       O  0.83315674  0.77611250  0.79234931    -0.67100
Ni1989     Ni  0.71841547  0.71481626  0.66635849     1.34900
C1990       C  0.84509334  0.75168284  0.78035497     0.84100
O1991       O  0.76340859  0.78248961  0.65768514    -0.80000
O1992       O  0.71688188  0.74826467  0.63547117    -0.90300
C1993       C  0.75819123  0.82918625  0.76756933     0.83600
O1994       O  0.66541976  0.72419197  0.70669024    -0.68500
O1995       O  0.78178324  0.75168535  0.86331738    -0.87800
C1996       C  0.65350440  0.74874065  0.71817580     0.84500
C1997       C  0.75619796  0.76098419  0.63156795     1.06000
H1998       H  0.70624928  0.76871994  0.79645205     0.37800
O1999       O  0.73831351  0.76561630  0.78700491    -1.10400
O2000       O  0.81745829  0.73046714  0.78646662    -0.67100
Ni2001     Ni  0.74942038  0.72585749  0.77632098     1.26300
O2002       O  0.68132885  0.76985913  0.71227960    -0.67300
O2003       O  0.73471889  0.71774288  0.84122002    -0.79600
C2004       C  0.74097824  0.67082292  0.73178525     0.83800
O2005       O  0.75946912  0.68744420  0.76428821    -0.66800
Ni2006     Ni  0.78026905  0.78517441  0.83274675     1.27400
Ni2007     Ni  0.74920507  0.77431021  0.72265311     1.26100
H2008       H  0.79234084  0.73138513  0.70254506     0.38400
O2009       O  0.95489752  0.49730621  0.56867285    -0.75100
O2010       O  0.95628409  0.99626326  0.92379648    -0.75100
O2011       O  0.95991387  0.95692394  0.49407499    -0.75200
O2012       O  0.95069117  0.53573772  0.49802062    -0.75200
O2013       O  0.53013040  0.54099602  0.99818903    -0.75200
O2014       O  0.53801038  0.96235793  0.99457008    -0.75200
O2015       O  0.53391342  0.00085242  0.92372319    -0.75100
O2016       O  0.53250454  0.00266648  0.56903900    -0.75200
Ni2017     Ni  0.95264345  0.49617596  0.49613305     1.25400
Ni2018     Ni  0.53660376  0.00180835  0.99621831     1.25400
C2019       C  0.49357178  0.50022496  0.59312586     0.87100
C2020       C  0.49510049  0.99867220  0.89946543     0.87000
C2021       C  0.50042330  0.94694159  0.99442333     0.87000
C2022       C  0.48818172  0.55127616  0.49794278     0.87200
O2023       O  0.95596358  0.49799831  0.81894226    -0.75100
O2024       O  0.95496985  0.99936680  0.67456144    -0.75100
O2025       O  0.95537621  0.95934536  0.74169381    -0.75200
O2026       O  0.95557997  0.53813363  0.75206606    -0.75200
O2027       O  0.53337872  0.54108940  0.75050568    -0.75200
O2028       O  0.53323354  0.96201000  0.74134965    -0.75200
O2029       O  0.53270436  0.00184130  0.67369941    -0.75100
O2030       O  0.53369481  0.00096708  0.81823086    -0.75200
Ni2031     Ni  0.95282112  0.49868490  0.74680233     1.25400
Ni2032     Ni  0.53595921  0.00155124  0.74591221     1.25400
C2033       C  0.49494306  0.49918657  0.84281524     0.87100
C2034       C  0.49370518  0.00057152  0.64983258     0.87000
C2035       C  0.49449601  0.94755260  0.74040382     0.87000
C2036       C  0.49407539  0.55274849  0.75255647     0.87200
O2037       O  0.71511205  0.99968646  0.93386427    -0.75100
O2038       O  0.71470756  0.49713425  0.57830042    -0.75100
O2039       O  0.71355006  0.53762920  0.51200105    -0.75200
O2040       O  0.71579300  0.95875773  0.49980230    -0.75200
O2041       O  0.79519867  0.96307209  0.99968507    -0.75200
O2042       O  0.79135805  0.54106015  0.51181095    -0.75200
O2043       O  0.79243884  0.00057545  0.57816612    -0.75100
O2044       O  0.79277777  0.00354651  0.93345442    -0.75200
Ni2045     Ni  0.71206670  0.49813320  0.50602594     1.25400
Ni2046     Ni  0.79570274  0.00264204  0.00566980     1.25400
C2047       C  0.75387384  0.00185642  0.90937623     0.87100
C2048       C  0.75352796  0.49866880  0.60254076     0.87000
C2049       C  0.75180685  0.55246809  0.51402767     0.87000
C2050       C  0.75708727  0.94807180  0.99734055     0.87200
O2051       O  0.71466652  0.99725545  0.68364126    -0.75100
O2052       O  0.71482938  0.50013605  0.82856452    -0.75100
O2053       O  0.71272853  0.53814568  0.75651416    -0.75200
O2054       O  0.71617254  0.95931426  0.75498725    -0.75200
O2055       O  0.79424894  0.96268972  0.75582384    -0.75200
O2056       O  0.79072195  0.54167857  0.75650942    -0.75200
O2057       O  0.79256704  0.00373455  0.82830967    -0.75100
O2058       O  0.79239046  0.00048180  0.68345367    -0.75200
Ni2059     Ni  0.71192608  0.49860811  0.75602955     1.25400
Ni2060     Ni  0.79518218  0.00226381  0.75596700     1.25400
C2061       C  0.75355105  0.99867566  0.65921704     0.87100
C2062       C  0.75370848  0.50202436  0.85274772     0.87000
C2063       C  0.75105213  0.55289558  0.75573462     0.87000
C2064       C  0.75574711  0.94807820  0.75605564     0.87200
C2065       C  0.77446924  0.63086454  0.77172363    -0.27000
C2066       C  0.74307122  0.64044081  0.73772578    -0.15100
C2067       C  0.71363669  0.62082827  0.71092992     0.35600
C2068       C  0.71729658  0.59251037  0.71774722    -0.26400
C2069       C  0.74899264  0.58308719  0.75113637    -0.15700
C2070       C  0.77756822  0.60246418  0.77892335     0.36600
N2071       N  0.80755280  0.59346628  0.81623217    -0.89900
H2072       H  0.79669707  0.64560188  0.79304194     0.17800
H2073       H  0.69515413  0.57757872  0.69668391     0.17700
N2074       N  0.67959113  0.62956112  0.67737935    -0.89000
H2075       H  0.82437931  0.61043190  0.83499755     0.35100
H2076       H  0.83396668  0.58219526  0.79932400     0.40200
H2077       H  0.65439979  0.64013325  0.69788524     0.39800
H2078       H  0.66189039  0.61252908  0.65971805     0.34700
C2079       C  0.78357535  0.87726338  0.79590730    -0.27000
C2080       C  0.75720596  0.85966910  0.76276069    -0.15100
C2081       C  0.73068009  0.87167232  0.72654730     0.35600
C2082       C  0.73016952  0.90064217  0.72565514    -0.26400
C2083       C  0.75686132  0.91785328  0.75858484    -0.15700
C2084       C  0.78363972  0.90611626  0.79423353     0.36600
N2085       N  0.80992387  0.92356128  0.82937113    -0.89900
H2086       H  0.80426453  0.86855364  0.82364374     0.17800
H2087       H  0.70963625  0.90989654  0.69836861     0.17700
N2088       N  0.70434523  0.85468338  0.69083203    -0.89000
H2089       H  0.82805479  0.91168052  0.85295343     0.35100
H2090       H  0.78596698  0.93451289  0.85096001     0.40200
H2091       H  0.72843299  0.84494253  0.66758722     0.39800
H2092       H  0.68512754  0.86685386  0.66872121     0.34700
C2093       C  0.70467902  0.62559002  0.01531510    -0.27000
C2094       C  0.74753427  0.64103227  0.51060484    -0.15100
C2095       C  0.79076818  0.62819722  0.50690913     0.35600
C2096       C  0.79165960  0.59937344  0.51030372    -0.26400
C2097       C  0.75023796  0.58315478  0.51740013    -0.15700
C2098       C  0.70546547  0.59697424  0.01993205     0.36600
N2099       N  0.66240967  0.58142479  0.02860104    -0.89900
H2100       H  0.67143902  0.63548632  0.01766203     0.17800
H2101       H  0.82468139  0.58948153  0.50557580     0.17700
N2102       N  0.83323942  0.64421211  0.49800280    -0.89000
H2103       H  0.63396841  0.59422142  0.02913690     0.35100
H2104       H  0.66429746  0.57401243  0.06357917     0.40200
H2105       H  0.83119734  0.65147893  0.46293110     0.39800
H2106       H  0.86200228  0.63170743  0.49802814     0.34700
C2107       C  0.71427269  0.90043087  0.48863813    -0.27000
C2108       C  0.75835119  0.91737620  0.99234140    -0.15100
C2109       C  0.80097941  0.90363445  0.99016305     0.35600
C2110       C  0.79992721  0.87474026  0.99035733    -0.26400
C2111       C  0.75755096  0.85897597  0.99283628    -0.15700
C2112       C  0.71368077  0.87131939  0.48790133     0.36600
N2113       N  0.67000098  0.85539399  0.48551526    -0.89900
H2114       H  0.68130165  0.91051749  0.48752831     0.17800
H2115       H  0.83278568  0.86441716  0.98953179     0.17700
N2116       N  0.84532730  0.91887258  0.98918017    -0.89000
H2117       H  0.64194968  0.86831337  0.48290118     0.35100
H2118       H  0.66572459  0.84569841  0.51845495     0.40200
H2119       H  0.84849788  0.92749684  0.95514194     0.39800
H2120       H  0.87299186  0.90567354  0.99160530     0.34700
C2121       C  0.53398890  0.59986631  0.76488853    -0.27000
C2122       C  0.49277272  0.58343329  0.75495129    -0.15100
C2123       C  0.95066195  0.59661894  0.74670891     0.35600
C2124       C  0.95071092  0.62542398  0.74886882    -0.26400
C2125       C  0.99205059  0.64188902  0.75620004    -0.15700
C2126       C  0.53411667  0.62899270  0.76569304     0.36600
N2127       N  0.57689060  0.64522991  0.77457269    -0.89900
H2128       H  0.56636488  0.58998075  0.77157107     0.17800
H2129       H  0.91800106  0.63506394  0.74261411     0.17700
N2130       N  0.90811153  0.58090668  0.73405306    -0.89000
H2131       H  0.60491536  0.63244143  0.77851719     0.35100
H2132       H  0.57320434  0.65624364  0.80815186     0.40200
H2133       H  0.91327562  0.57105790  0.69966744     0.39800
H2134       H  0.88040833  0.59389959  0.72989390     0.34700
C2135       C  0.53912083  0.90494742  0.73013981    -0.27000
C2136       C  0.49575785  0.91690387  0.73866031    -0.15100
C2137       C  0.95564931  0.89944456  0.74721745     0.35600
C2138       C  0.96027731  0.87068304  0.74747582    -0.26400
C2139       C  0.50415314  0.85912559  0.74138683    -0.15700
C2140       C  0.54387991  0.87642299  0.73189945     0.36600
N2141       N  0.58912277  0.86500534  0.72458856    -0.89900
H2142       H  0.56995342  0.91795861  0.72289672     0.17800
H2143       H  0.92991839  0.85736426  0.75516939     0.17700
N2144       N  0.91077125  0.91080903  0.75728862    -0.89000
H2145       H  0.61477942  0.88062544  0.71913200     0.35100
H2146       H  0.58766694  0.85234739  0.69246425     0.40200
H2147       H  0.91300467  0.92171689  0.79123782     0.39800
H2148       H  0.88498172  0.89504826  0.76102340     0.34700
C2149       C  0.52301968  0.59908169  0.01935314    -0.27000
C2150       C  0.48579663  0.58169402  0.49610646    -0.15100
C2151       C  0.95147922  0.59408638  0.46875769     0.35600
C2152       C  0.95406106  0.62271633  0.46407192    -0.26400
C2153       C  0.98956994  0.63982046  0.48680543    -0.15700
C2154       C  0.52482357  0.62785711  0.01626925     0.36600
N2155       N  0.56245120  0.64340919  0.04066275    -0.89900
H2156       H  0.54949882  0.58983987  0.04037703     0.17800
H2157       H  0.92783249  0.63165082  0.44226050     0.17700
N2158       N  0.91472349  0.57815731  0.44358663    -0.89000
H2159       H  0.54858043  0.65668904  0.06779091     0.35100
H2160       H  0.58101486  0.65495117  0.01518646     0.40200
H2161       H  0.89386553  0.56808139  0.46917219     0.39800
H2162       H  0.92970721  0.56342376  0.41975869     0.34700
C2163       C  0.98019241  0.86910309  0.97657153    -0.27000
C2164       C  0.50883856  0.85974470  0.01337385    -0.15100
C2165       C  0.53553933  0.87975921  0.04269985     0.35600
C2166       C  0.53314533  0.90780876  0.03434582    -0.26400
C2167       C  0.50394350  0.91690628  0.99838489    -0.15700
C2168       C  0.97749182  0.89742032  0.96881641     0.36600
N2169       N  0.94483429  0.90665447  0.43382603    -0.89900
H2170       H  0.95644780  0.85429240  0.45508438     0.17800
H2171       H  0.55337634  0.92279385  0.05734654     0.19300
N2172       N  0.56522336  0.87263130  0.08148819    -0.89000
H2173       H  0.93122496  0.88951424  0.91224620     0.35100
H2174       H  0.97076046  0.91564238  0.90502141     0.40200
H2175       H  0.59032879  0.85933199  0.06741331     0.39800
H2176       H  0.54479953  0.86293408  0.10790169     0.34700
loop_ 
_geom_bond_atom_site_label_1 
_geom_bond_atom_site_label_2 
_geom_bond_distance 
_geom_bond_site_symmetry_2 
_ccdc_geom_bond_type 
O1           Ni7   1.930       .  S
O1          C294   1.274       .  A
O2          Ni25   1.911       .  S
O2         C1099   1.271       .  A
O3           H26   0.965       .  S
O3        Ni1095   1.924   1_455  S
O3        Ni1113   1.980       .  S
O3         Ni291   1.858   1_455  S
C4           O21   1.241       .  A
C4           O13   1.261   1_655  A
C4         C1129   1.453       .  S
O5          Ni24   1.924       .  S
O5          C283   1.272       .  A
O6          Ni24   1.918       .  S
O6            C8   1.274       .  A
Ni7          O10   1.873       .  S
Ni7          O12   1.920       .  S
Ni7        O1091   1.924       .  S
C8           O18   1.285       .  A
C8          C338   1.482       .  S
O9          Ni25   1.882       .  S
O9           C15   1.241       .  A
O10          C15   1.262       .  A
C11        O1090   1.271   1_455  A
C11         O277   1.271       .  A
C11         C260   1.496       .  S
O12          C14   1.275       .  A
O13         Ni24   1.869       .  S
C14          O20   1.285       .  A
C14         C332   1.482       .  S
C15        C1118   1.451       .  S
H16          O17   0.965       .  S
O17        Ni297   1.854   1_554  S
O17       Ni1107   1.977       .  S
O17       Ni1112   1.924       .  S
O18         Ni19   1.967       .  S
Ni19         O23   1.910       .  S
Ni19         O21   1.883   1_455  S
Ni19        O275   1.859   1_554  S
Ni19       O1105   1.977   1_455  S
O20         Ni25   1.966       .  S
C22         O273   1.275       .  A
C22        O1111   1.269   1_556  A
C22         C249   1.495       .  S
O23        C1110   1.269   1_454  A
Ni24       O1105   1.924   1_455  S
Ni25       O1091   1.980       .  S
Ni25        O289   1.855       .  S
O27         Ni33   1.903       .  S
O27          C48   1.270       .  A
O28         Ni51   1.908       .  S
O28        C1125   1.270       .  A
O29          H52   0.966   1_655  S
O29         Ni45   1.865   1_655  S
O29       Ni1121   1.934       .  S
O29       Ni1139   1.970       .  S
C30          O47   1.246       .  A
C30          O39   1.256       .  A
C30        C1103   1.451       .  S
O31         Ni50   1.921       .  S
O31          C37   1.271       .  A
O32         Ni50   1.899       .  S
O32          C34   1.271       .  A
Ni33         O36   1.887       .  S
Ni33         O38   1.899       .  S
Ni33       O1117   1.934       .  S
C34          O44   1.286       .  A
C34          C92   1.478       .  S
O35         Ni51   1.899       .  S
O35          C41   1.244       .  A
O36          C41   1.253       .  A
C37        O1116   1.270   1_455  A
C37         C235   1.475       .  S
O38          C40   1.271       .  A
O39         Ni50   1.895       .  S
C40          O46   1.287       .  A
C40          C86   1.480       .  S
C41        C1092   1.453       .  S
H42          O43   0.960       .  S
O43         Ni51   1.862       .  S
O43       Ni1133   1.976       .  S
O43       Ni1138   1.937       .  S
O44         Ni45   1.974       .  S
Ni45         O49   1.923       .  S
Ni45         O47   1.899       .  S
Ni45       O1131   1.976       .  S
O46         Ni51   1.976       .  S
C48        O1137   1.274       .  A
C48         C221   1.491       .  S
O49        C1136   1.274   1_455  A
Ni50       O1131   1.937       .  S
Ni51       O1117   1.970       .  S
O53         Ni59   1.922       .  S
O53         C346   1.273       .  A
O54         Ni77   1.925       .  S
O54          C63   1.275       .  A
O55          H78   0.963       .  S
O55         Ni59   1.936       .  S
O55         Ni77   1.974       .  S
O55        Ni343   1.865       .  S
C56          O73   1.244       .  A
C56          O65   1.254       .  A
C56          C93   1.452       .  S
O57         Ni76   1.909       .  S
O57         C335   1.271       .  A
O58         Ni76   1.903       .  S
O58          C60   1.272   1_554  A
Ni59         O62   1.895       .  S
Ni59         O64   1.907       .  S
C60          O70   1.287   1_556  A
C60         C286   1.483       .  S
O61         Ni77   1.898       .  S
O61          C67   1.245       .  A
O62          C67   1.257       .  A
C63         O329   1.270       .  A
C63         C207   1.484       .  S
O64          C66   1.273       .  A
O65         Ni76   1.891       .  S
C66          O72   1.287       .  A
C66         C280   1.484       .  S
C67          C82   1.450       .  S
H68          O69   0.960       .  S
O69         Ni71   1.971       .  S
O69         Ni76   1.936       .  S
O69        Ni349   1.866   1_554  S
O70         Ni71   1.973       .  S
Ni71         O75   1.913       .  S
Ni71         O73   1.897       .  S
Ni71        O327   1.866   1_554  S
O72         Ni77   1.974       .  S
C74          O75   1.271   1_556  A
C74         O325   1.272       .  A
C74         C190   1.480   1_556  S
Ni77        O341   1.869       .  S
O79         Ni85   1.930       .  S
O79         C100   1.274       .  A
O80        Ni103   1.910       .  S
O80          C89   1.269       .  A
O81         H104   0.965       .  S
O81         Ni85   1.926       .  S
O81        Ni103   1.977       .  S
O81         Ni97   1.855       .  S
C82          O99   1.241       .  A
C82          O91   1.263       .  A
O83        Ni102   1.929       .  S
O83          C89   1.275       .  A
O84        Ni102   1.920       .  S
O84          C86   1.273       .  A
Ni85         O88   1.875       .  S
Ni85         O90   1.922       .  S
C86          O96   1.283       .  A
O87        Ni103   1.882       .  S
O87          C93   1.242       .  A
O88          C93   1.263       .  A
C89         C176   1.497       .  S
O90          C92   1.274       .  A
O91        Ni102   1.877       .  S
C92          O98   1.283       .  A
H94          O95   0.966       .  S
O95        Ni103   1.859       .  S
O95         Ni97   1.976       .  S
O95        Ni102   1.923       .  S
O96         Ni97   1.960       .  S
Ni97        O101   1.903       .  S
Ni97         O99   1.882       .  S
O98        Ni103   1.959       .  S
C100        O101   1.268       .  A
C100        C162   1.488       .  S
O105       Ni113   1.991   1_554  S
O105       C1203   1.296       .  A
O106       Ni929   1.984       .  S
O106       C1204   1.294       .  A
O107       Ni657   1.922       .  S
O107       C1477   1.281       .  A
O108       Ni113   1.922   1_545  S
O108       C1206   1.281       .  A
O109       Ni658   1.914       .  S
O109        C390   1.280   1_455  A
O110       Ni114   1.916       .  S
O110        C117   1.280       .  A
O111       Ni114   1.986       .  S
O111        C116   1.295   1_455  A
O112       Ni386   1.985   1_554  S
O112        C659   1.294   1_455  A
Ni113       O922   1.983       .  S
Ni113       O651   1.922       .  S
Ni113     Ni2018   2.375   1_565  S
Ni114       O653   1.913       .  S
Ni114       O384   1.980       .  S
Ni114     Ni2017   2.375   1_455  S
C115       O1193   1.296       .  A
C115        O656   1.294   1_665  A
C115        C674   1.557       .  S
C116       O1194   1.294       .  A
C116        C673   1.554       .  S
C117       O1467   1.282   1_455  A
C117        C263   1.479       .  S
C118       O1196   1.281       .  A
C118        O381   1.281   1_655  A
C118        C246   1.486       .  S
O119       Ni127   1.984       .  S
O119       C1217   1.294       .  A
O120       Ni671   1.986       .  S
O120       C1218   1.294       .  A
O121       Ni671   1.913       .  S
O121       C1219   1.279       .  A
O122       Ni127   1.911   1_545  S
O122       C1220   1.281       .  A
O123       Ni672   1.914       .  S
O123        C132   1.279   1_455  A
O124       Ni128   1.910       .  S
O124        C131   1.281   1_455  A
O125       Ni128   1.990       .  S
O125        C130   1.296   1_455  A
O126       Ni128   1.988       .  S
O126        C673   1.295   1_455  A
Ni127       O664   1.986       .  S
Ni127       O665   1.913       .  S
Ni127     Ni1760   2.373   1_565  S
Ni128       O667   1.914       .  S
Ni128     Ni1759   2.373   1_455  S
C129       O1207   1.294       .  A
C129        O670   1.295   1_665  A
C129        C660   1.554       .  S
C130       O1208   1.294       .  A
C130        C659   1.557       .  S
C131       O1209   1.279       .  A
C131        C232   1.486       .  S
C132       O1210   1.281       .  A
C132        C218   1.482       .  S
O133       Ni957   1.986       .  S
O133        C143   1.294       .  A
O134       Ni141   1.987       .  S
O134        C144   1.295       .  A
O135       Ni141   1.910   1_545  S
O135        C145   1.280       .  A
O136       Ni685   1.912       .  S
O136        C418   1.280   1_554  A
O137       Ni142   1.913       .  S
O137        C146   1.281       .  A
O138       Ni958   1.919       .  S
O138        C145   1.282       .  A
O139       Ni414   1.987       .  S
O139        C688   1.294       .  A
O140       Ni142   1.986       .  S
O140        C143   1.295       .  A
Ni141       O949   1.984   1_554  S
Ni141       O680   1.912   1_554  S
Ni141      Ni958   2.372   1_565  S
Ni142       O954   1.917       .  S
Ni142       O411   1.985       .  S
Ni142      Ni957   2.372       .  S
C143        C702   1.555       .  S
C144        O683   1.294   1_565  A
C144        C701   1.555       .  S
C145        C193   1.490       .  S
C146        O408   1.280       .  A
C146        C204   1.492       .  S
O147       Ni699   1.983       .  S
O147        C157   1.294       .  A
O148       Ni155   1.989       .  S
O148        C158   1.295   1_565  A
O149       Ni155   1.917   1_545  S
O149        C159   1.282       .  A
O150       Ni699   1.919       .  S
O150        C160   1.280       .  A
O151       Ni156   1.918       .  S
O151        C160   1.281       .  A
O152       Ni700   1.919       .  S
O152        C159   1.280       .  A
O153       Ni156   1.985       .  S
O153        C702   1.294       .  A
O154       Ni156   1.989       .  S
O154        C157   1.296       .  A
Ni155       O691   1.983       .  S
Ni155       O694   1.919       .  S
Ni155      Ni700   2.375   1_565  S
Ni156       O696   1.919       .  S
Ni156      Ni699   2.375       .  S
C157        C688   1.555       .  S
C158        O697   1.294       .  A
C158        C687   1.555       .  S
C159        C165   1.485       .  S
C160        C179   1.477       .  S
C161        C162   1.408       .  A
C161        C166   1.408       .  A
C161        H168   1.084       .  S
C162        C163   1.414       .  A
C163        C164   1.404       .  A
C163        N170   1.439       .  S
C164        C165   1.405       .  A
C164        H169   1.084       .  S
C165        C166   1.414       .  A
C166        N167   1.438       .  S
N167        H171   1.046       .  S
N167        H172   1.044       .  S
N170        H173   1.045       .  S
N170        H174   1.046       .  S
C175        C176   1.409       .  A
C175        C180   1.404       .  A
C175        H182   1.083       .  S
C176        C177   1.422       .  A
C177        C178   1.410       .  A
C177        N184   1.438       .  S
C178        C179   1.402       .  A
C178        H183   1.084       .  S
C179        C180   1.408       .  A
C180        N181   1.439       .  S
N181        H185   1.046       .  S
N181        H186   1.046       .  S
N184        H187   1.046       .  S
N184        H188   1.046       .  S
C189        C194   1.401       .  A
C189        C462   1.401       .  A
C189        H196   1.084       .  S
C190        C191   1.410       .  A
C190        C461   1.402       .  A
C191        C192   1.408       .  A
C191        N198   1.437   1_554  S
C192        C193   1.409       .  A
C192        H197   1.083       .  S
C193        C466   1.417       .  A
C194        C465   1.416       .  A
C194        N195   1.438       .  S
N195        H199   1.045       .  S
N195        H200   1.046       .  S
N198        H201   1.046       .  S
N198        H202   1.045   1_556  S
C203        C208   1.407       .  A
C203        C476   1.411       .  A
C203        H210   1.083       .  S
C204        C205   1.415       .  A
C204        C475   1.412       .  A
C205        C206   1.399       .  A
C205        N212   1.438       .  S
C206        C207   1.405       .  A
C206        H211   1.084       .  S
C207        C480   1.410       .  A
C208        C479   1.409       .  A
C208        N209   1.438       .  S
N209        H213   1.046       .  S
N209        H214   1.046   1_556  S
N212        H215   1.046       .  S
N212        H216   1.045       .  S
C217        C218   1.408   1_455  A
C217        C222   1.411       .  A
C217        H224   1.083       .  S
C218       C1307   1.410       .  A
C219        C220   1.396       .  A
C219       C1306   1.410       .  A
C219        N226   1.440       .  S
C220        C221   1.410       .  A
C220        H225   1.083       .  S
C221       C1310   1.415       .  A
C222       C1309   1.415   1_455  A
C222        N223   1.437       .  S
N223        H227   1.046       .  S
N223        H228   1.045       .  S
N226        H229   1.046       .  S
N226        H230   1.046       .  S
C231        C232   1.406   1_455  A
C231        C236   1.401       .  A
C231        H238   1.083       .  S
C232       C1321   1.418       .  A
C233        C234   1.406       .  A
C233       C1320   1.418       .  A
C233        N240   1.438       .  S
C234       C1323   1.401       .  A
C234        H239   1.084       .  S
C235        C236   1.410       .  A
C235       C1322   1.401   1_455  A
C236        N237   1.438       .  S
N237        H241   1.046       .  S
N237        H242   1.046       .  S
N240        H243   1.046       .  S
N240        H244   1.046       .  S
C245        C250   1.400       .  A
C245        C518   1.404   1_455  A
C245        H252   1.084       .  S
C246        C517   1.404   1_656  A
C246       C1335   1.416       .  A
C247        C248   1.401       .  A
C247       C1334   1.416       .  A
C247        N254   1.433       .  S
C248        C249   1.408       .  A
C248        H253   1.084       .  S
C249       C1610   1.421   1_556  A
C250       C1609   1.420   1_455  A
C250        N251   1.433       .  S
N251        H255   1.044       .  S
N251        H256   1.046       .  S
N254        H257   1.045       .  S
N254        H258   1.046       .  S
C259        C264   1.408       .  A
C259       C1348   1.411       .  A
C259        H538   1.083       .  S
C260        C261   1.423       .  A
C260       C1347   1.411   1_455  A
C261        C262   1.398       .  A
C261        N268   1.433       .  S
C262        C263   1.401       .  A
C262        H267   1.084       .  S
C263       C1352   1.408   1_455  A
C264       C1351   1.408       .  A
C264        N537   1.438       .  S
N265        C536   1.438       .  S
N265        H541   1.046       .  S
N265        H542   1.046       .  S
H266        C531   1.083       .  S
N268        H271   1.044       .  S
N268        H272   1.045       .  S
H269        N537   1.046       .  S
H270        N537   1.046       .  S
O273       Ni279   1.933       .  S
O274       Ni297   1.908       .  S
O274       C1371   1.270   1_556  A
O275        H298   0.965       .  S
O275      Ni1367   1.922   1_455  S
O275      Ni1385   1.977       .  S
C276        O293   1.243       .  A
C276        O285   1.262   1_655  A
C276       C1401   1.456       .  S
O277       Ni296   1.924       .  S
O278       Ni296   1.920       .  S
O278        C280   1.274       .  A
Ni279       O282   1.877       .  S
Ni279       O284   1.920       .  S
Ni279      O1363   1.922       .  S
C280        O290   1.286       .  A
O281       Ni297   1.883       .  S
O281        C287   1.242       .  A
O282        C287   1.263       .  A
C283       O1362   1.270   1_454  A
C283        C532   1.495       .  S
O284        C286   1.274       .  A
O285       Ni296   1.870       .  S
C286        O292   1.285       .  A
C287       C1390   1.450       .  S
H288        O289   0.965       .  S
O289      Ni1379   1.975       .  S
O289      Ni1384   1.922       .  S
O290       Ni291   1.968   1_455  S
Ni291       O295   1.910   1_655  S
Ni291       O293   1.886       .  S
Ni291      O1377   1.975       .  S
O292       Ni297   1.967       .  S
C294       O1383   1.269       .  A
C294        C521   1.492       .  S
O295       C1382   1.269   1_455  A
Ni296      O1377   1.922   1_455  S
Ni297      O1363   1.977       .  S
O299       Ni305   1.905       .  S
O299        C320   1.271       .  A
O300       Ni323   1.914       .  S
O300       C1397   1.271       .  A
O301        H324   0.967   1_655  S
O301      Ni1393   1.935       .  S
O301      Ni1411   1.966       .  S
O301       Ni317   1.867   1_655  S
C302        O319   1.245       .  A
C302        O311   1.256       .  A
C302       C1375   1.450       .  S
O303       Ni322   1.921       .  S
O303        C309   1.272       .  A
O304       Ni322   1.906       .  S
O304        C306   1.273       .  A
Ni305       O308   1.889       .  S
Ni305       O310   1.902       .  S
Ni305      O1389   1.935       .  S
C306        O316   1.286       .  A
C306        C364   1.483       .  S
O307       Ni323   1.902       .  S
O307        C313   1.247       .  A
O308        C313   1.253       .  A
C309       O1388   1.271   1_455  A
C309        C507   1.478       .  S
O310        C312   1.271       .  A
O311       Ni322   1.894       .  S
C312        O318   1.288       .  A
C312        C358   1.484       .  S
C313       C1364   1.456       .  S
H314        O315   0.960       .  S
O315       Ni323   1.868       .  S
O315      Ni1405   1.974       .  S
O315      Ni1410   1.936       .  S
O316       Ni317   1.973       .  S
Ni317       O321   1.915       .  S
Ni317       O319   1.897       .  S
Ni317      O1403   1.974       .  S
O318       Ni323   1.979       .  S
C320       O1409   1.271       .  A
C320        C493   1.485       .  S
O321       C1408   1.271   1_455  A
Ni322      O1403   1.936       .  S
Ni323      O1389   1.966       .  S
O325       Ni331   1.919       .  S
O326       Ni349   1.921       .  S
O326        C335   1.274   1_556  A
O327        H350   0.962       .  S
O327       Ni331   1.937       .  S
O327       Ni349   1.974       .  S
C328        O345   1.244       .  A
C328        O337   1.254       .  A
C328        C365   1.453       .  S
O329       Ni348   1.905       .  S
O330       Ni348   1.905       .  S
O330        C332   1.272       .  A
Ni331       O334   1.893       .  S
Ni331       O336   1.905       .  S
C332        O342   1.286       .  A
O333       Ni349   1.899       .  S
O333        C339   1.246       .  A
O334        C339   1.255       .  A
C335        C479   1.481   1_554  S
O336        C338   1.273   1_556  A
O337       Ni348   1.889       .  S
C338        O344   1.288   1_554  A
C339        C354   1.452       .  S
H340        O341   0.960       .  S
O341       Ni343   1.970       .  S
O341       Ni348   1.935       .  S
O342       Ni343   1.973       .  S
Ni343       O347   1.910       .  S
Ni343       O345   1.898       .  S
O344       Ni349   1.976       .  S
C346        O347   1.269       .  A
C346        C462   1.478       .  S
O351       Ni357   1.931       .  S
O351        C372   1.274       .  A
O352       Ni375   1.908       .  S
O352        C361   1.269       .  A
O353        H376   0.965       .  S
O353       Ni357   1.922       .  S
O353       Ni375   1.977       .  S
O353       Ni369   1.858       .  S
C354        O371   1.242       .  A
C354        O363   1.262       .  A
O355       Ni374   1.923       .  S
O355        C361   1.274       .  A
O356       Ni374   1.920       .  S
O356        C358   1.273       .  A
Ni357       O360   1.874       .  S
Ni357       O362   1.925       .  S
C358        O368   1.285       .  A
O359       Ni375   1.884       .  S
O359        C365   1.242       .  A
O360        C365   1.263       .  A
C361        C448   1.494       .  S
O362        C364   1.276       .  A
O363       Ni374   1.872       .  S
C364        O370   1.284       .  A
H366        O367   0.966       .  S
O367       Ni375   1.858       .  S
O367       Ni369   1.975       .  S
O367       Ni374   1.923       .  S
O368       Ni369   1.967       .  S
Ni369       O373   1.909       .  S
Ni369       O371   1.884       .  S
O370       Ni375   1.963       .  S
C372        O373   1.269       .  A
C372        C434   1.496       .  S
O377       Ni385   1.988       .  S
O377       C1475   1.295   1_565  A
O378       Ni657   1.983       .  S
O378       C1476   1.294       .  A
O379       Ni929   1.923       .  S
O379       C1205   1.282       .  A
O380       Ni385   1.920   1_545  S
O380       C1478   1.281       .  A
O381       Ni930   1.916       .  S
O382       Ni386   1.914       .  S
O382        C389   1.280       .  A
O383       Ni386   1.988       .  S
O383        C388   1.295   1_455  A
O384        C931   1.293   1_455  A
Ni385       O650   1.984       .  S
Ni385       O923   1.923       .  S
Ni385     Ni1746   2.375   1_565  S
Ni386       O925   1.916       .  S
Ni386     Ni1745   2.375   1_455  S
C387       O1465   1.295   1_545  A
C387        O928   1.293   1_655  A
C387        C946   1.552       .  S
C388       O1466   1.294       .  A
C388        C945   1.553       .  S
C389       O1195   1.281   1_455  A
C389        C535   1.475       .  S
C390       O1468   1.281       .  A
C390        C518   1.484       .  S
O391       Ni399   1.983       .  S
O391       C1489   1.294       .  A
O392       Ni943   1.985       .  S
O392       C1490   1.294       .  A
O393       Ni943   1.911       .  S
O393       C1491   1.279       .  A
O394       Ni399   1.909   1_545  S
O394       C1492   1.280       .  A
O395       Ni944   1.920       .  S
O395        C404   1.280   1_455  A
O396       Ni400   1.913       .  S
O396        C403   1.282   1_455  A
O397       Ni400   1.984       .  S
O397        C402   1.294   1_455  A
O398       Ni400   1.986       .  S
O398        C945   1.294   1_455  A
Ni399       O936   1.985       .  S
Ni399       O937   1.911       .  S
Ni399     Ni2032   2.373   1_565  S
Ni400       O939   1.920       .  S
Ni400     Ni2031   2.373   1_455  S
C401       O1479   1.294       .  A
C401        O942   1.294   1_665  A
C401        C932   1.553       .  S
C402       O1480   1.294       .  A
C402        C931   1.552       .  S
C403       O1481   1.279       .  A
C403        C504   1.487       .  S
C404       O1482   1.280       .  A
C404        C490   1.488       .  S
O405       Ni685   1.984   1_556  S
O405        C415   1.294       .  A
O406       Ni413   1.988       .  S
O406        C416   1.295       .  A
O407       Ni413   1.912   1_545  S
O407        C417   1.280       .  A
O408       Ni957   1.916       .  S
O409       Ni414   1.917   1_556  S
O409        C418   1.281       .  A
O410       Ni686   1.917       .  S
O410        C417   1.281       .  A
O411        C960   1.294       .  A
O412       Ni414   1.986   1_556  S
O412        C415   1.295       .  A
Ni413       O677   1.986       .  S
Ni413       O952   1.916       .  S
Ni413      Ni686   2.372   1_565  S
Ni414       O682   1.919       .  S
Ni414      Ni685   2.372       .  S
C415        C974   1.554       .  S
C416        O955   1.294   1_565  A
C416        C973   1.554       .  S
C417        C465   1.489       .  S
C418        C476   1.490       .  S
O419       Ni971   1.984       .  S
O419        C429   1.294       .  A
O420       Ni427   1.989   1_545  S
O420        C430   1.295       .  A
O421       Ni427   1.916   1_545  S
O421        C431   1.281       .  A
O422       Ni971   1.915       .  S
O422        C432   1.279       .  A
O423       Ni428   1.919       .  S
O423        C432   1.281       .  A
O424       Ni972   1.921       .  S
O424        C431   1.281       .  A
O425       Ni428   1.982       .  S
O425        C974   1.293       .  A
O426       Ni428   1.988       .  S
O426        C429   1.295       .  A
Ni427       O963   1.984       .  S
Ni427       O966   1.915       .  S
Ni427      Ni972   2.376   1_565  S
Ni428       O968   1.921       .  S
Ni428      Ni971   2.376       .  S
C429        C960   1.554       .  S
C430        O969   1.293       .  A
C430        C959   1.554       .  S
C431        C437   1.481       .  S
C432        C451   1.474       .  S
C433        C434   1.411       .  A
C433        C438   1.410       .  A
C433        H440   1.083       .  S
C434        C435   1.418       .  A
C435        C436   1.406       .  A
C435        N442   1.438       .  S
C436        C437   1.402       .  A
C436        H441   1.084       .  S
C437        C438   1.411       .  A
C438        N439   1.439       .  S
N439        H443   1.046       .  S
N439        H444   1.043       .  S
N442        H445   1.046       .  S
N442        H446   1.046       .  S
C447        C448   1.410       .  A
C447        C452   1.403       .  A
C447        H454   1.083       .  S
C448        C449   1.421       .  A
C449        C450   1.408       .  A
C449        N456   1.438       .  S
C450        C451   1.401       .  A
C450        H455   1.084       .  S
C451        C452   1.407       .  A
C452        N453   1.439       .  S
N453        H457   1.046       .  S
N453        H458   1.046       .  S
N456        H459   1.046       .  S
N456        H460   1.046       .  S
C461        C466   1.402       .  A
C461        H468   1.084       .  S
C462        C463   1.410       .  A
C463        C464   1.408       .  A
C463        N470   1.437       .  S
C464        C465   1.409       .  A
C464        H469   1.082       .  S
C466        N467   1.438       .  S
N467        H471   1.045       .  S
N467        H472   1.046       .  S
N470        H473   1.046       .  S
N470        H474   1.044       .  S
C475        C480   1.411       .  A
C475        H482   1.083       .  S
C476        C477   1.415       .  A
C477        C478   1.401       .  A
C477        N484   1.438       .  S
C478        C479   1.405       .  A
C478        H483   1.084       .  S
C480        N481   1.437       .  S
N481        H485   1.046       .  S
N481        H486   1.045       .  S
N484        H487   1.046       .  S
N484        H488   1.045       .  S
C489        C490   1.411   1_455  A
C489        C494   1.412       .  A
C489        H496   1.083       .  S
C490       C1579   1.414       .  A
C491       C1578   1.414       .  A
C491        C492   1.395       .  A
C491        N498   1.439       .  S
C492        C493   1.404       .  A
C492        H497   1.084       .  S
C493       C1582   1.413       .  A
C494       C1581   1.413   1_455  A
C494        N495   1.438       .  S
N495        H499   1.046       .  S
N495        H500   1.046       .  S
N498        H501   1.046       .  S
N498        H502   1.046       .  S
C503        C504   1.405   1_455  A
C503        C508   1.400       .  A
C503        H510   1.083       .  S
C504       C1593   1.419       .  A
C505       C1592   1.419       .  A
C505        C506   1.408       .  A
C505        N512   1.438       .  S
C506       C1595   1.402       .  A
C506        H511   1.084       .  S
C507       C1594   1.402   1_455  A
C507        C508   1.411       .  A
C508        N509   1.438       .  S
N509        H513   1.046       .  S
N509        H514   1.045       .  S
N512        H515   1.046       .  S
N512        H516   1.046       .  S
C517        C522   1.402       .  A
C517        H524   1.083       .  S
C518       C1607   1.415       .  A
C519       C1606   1.415       .  A
C519        C520   1.400       .  A
C519        N526   1.433       .  S
C520        C521   1.407       .  A
C520        H525   1.083       .  S
C521       C1338   1.420       .  A
C522       C1337   1.421   1_454  A
C522        N523   1.433       .  S
N523        H527   1.045       .  S
N523        H528   1.046       .  S
N526        H529   1.044       .  S
N526        H530   1.046       .  S
C531       C1620   1.412   1_556  A
C531        C536   1.408       .  A
C532       C1619   1.412   1_454  A
C532        C533   1.423       .  A
C533        C534   1.397       .  A
C533        N540   1.433       .  S
C534        C535   1.400   1_554  A
C534        H539   1.084       .  S
C535       C1624   1.407   1_455  A
C536       C1623   1.407       .  A
N540        H543   1.044       .  S
N540        H544   1.045       .  S
O545       Ni551   1.930       .  S
O545        C838   1.274       .  A
O546       Ni569   1.911       .  S
O546       C1643   1.271       .  A
O547        H570   0.965       .  S
O547      Ni1639   1.924   1_455  S
O547      Ni1657   1.980       .  S
O547       Ni835   1.858   1_455  S
C548        O565   1.241       .  A
C548        O557   1.261   1_655  A
C548       C1673   1.453       .  S
O549       Ni568   1.924       .  S
O549        C827   1.272       .  A
O550       Ni568   1.918       .  S
O550        C552   1.274       .  A
Ni551       O554   1.873       .  S
Ni551       O556   1.920       .  S
Ni551      O1635   1.924       .  S
C552        O562   1.286       .  A
C552        C882   1.482       .  S
O553       Ni569   1.882       .  S
O553        C559   1.241       .  A
O554        C559   1.262       .  A
C555       O1634   1.271   1_455  A
C555        O821   1.271       .  A
C555        C804   1.496       .  S
O556        C558   1.275       .  A
O557       Ni568   1.869       .  S
C558        O564   1.285       .  A
C558        C876   1.482       .  S
C559       C1662   1.451       .  S
H560        O561   0.965       .  S
O561       Ni841   1.854   1_554  S
O561      Ni1651   1.977       .  S
O561      Ni1656   1.924       .  S
O562       Ni563   1.967       .  S
Ni563       O567   1.910       .  S
Ni563       O565   1.883   1_455  S
Ni563       O819   1.859   1_554  S
Ni563      O1649   1.977   1_455  S
O564       Ni569   1.966       .  S
C566        O817   1.275       .  A
C566       O1655   1.269   1_556  A
C566        C793   1.495       .  S
O567       C1654   1.269   1_454  A
Ni568      O1649   1.924   1_455  S
Ni569      O1635   1.980       .  S
Ni569       O833   1.855       .  S
O571       Ni577   1.903       .  S
O571        C592   1.270       .  A
O572       Ni595   1.908       .  S
O572       C1669   1.270       .  A
O573        H596   0.966   1_655  S
O573      Ni1665   1.934       .  S
O573      Ni1683   1.970       .  S
O573       Ni589   1.865   1_655  S
C574        O591   1.246       .  A
C574        O583   1.256       .  A
C574       C1647   1.451       .  S
O575       Ni594   1.921       .  S
O575        C581   1.271       .  A
O576       Ni594   1.899       .  S
O576        C578   1.271       .  A
Ni577       O580   1.887       .  S
Ni577       O582   1.899       .  S
Ni577      O1661   1.934       .  S
C578        O588   1.286       .  A
C578        C636   1.478       .  S
O579       Ni595   1.899       .  S
O579        C585   1.244       .  A
O580        C585   1.253       .  A
C581       O1660   1.270   1_455  A
C581        C779   1.475       .  S
O582        C584   1.271       .  A
O583       Ni594   1.895       .  S
C584        O590   1.287       .  A
C584        C630   1.480       .  S
C585       C1636   1.453       .  S
H586        O587   0.960       .  S
O587       Ni595   1.862       .  S
O587      Ni1677   1.976       .  S
O587      Ni1682   1.937       .  S
O588       Ni589   1.974       .  S
Ni589       O593   1.923       .  S
Ni589       O591   1.899       .  S
Ni589      O1675   1.976       .  S
O590       Ni595   1.976       .  S
C592       O1681   1.274       .  A
C592        C765   1.491       .  S
O593       C1680   1.274   1_455  A
Ni594      O1675   1.937       .  S
Ni595      O1661   1.970       .  S
O597       Ni603   1.922       .  S
O597        C890   1.272       .  A
O598       Ni621   1.925       .  S
O598        C607   1.275       .  A
O599        H622   0.963       .  S
O599       Ni603   1.936       .  S
O599       Ni621   1.974       .  S
O599       Ni887   1.865       .  S
C600        O617   1.244       .  A
C600        O609   1.254       .  A
C600        C637   1.452       .  S
O601       Ni620   1.909       .  S
O601        C879   1.271       .  A
O602       Ni620   1.903       .  S
O602        C604   1.272   1_554  A
Ni603       O606   1.895       .  S
Ni603       O608   1.907       .  S
C604        O614   1.287   1_556  A
C604        C830   1.483       .  S
O605       Ni621   1.898       .  S
O605        C611   1.245       .  A
O606        C611   1.257       .  A
C607        O873   1.270       .  A
C607        C751   1.484       .  S
O608        C610   1.273       .  A
O609       Ni620   1.891       .  S
C610        O616   1.287       .  A
C610        C824   1.484       .  S
C611        C626   1.450       .  S
H612        O613   0.960       .  S
O613       Ni893   1.866   1_554  S
O613       Ni615   1.971       .  S
O613       Ni620   1.936       .  S
O614       Ni615   1.973       .  S
Ni615       O619   1.913       .  S
Ni615       O617   1.897       .  S
Ni615       O871   1.866   1_554  S
O616       Ni621   1.974       .  S
C618        O869   1.272       .  A
C618        O619   1.271   1_556  A
C618        C734   1.480   1_556  S
Ni621       O885   1.869       .  S
O623       Ni629   1.930       .  S
O623        C644   1.274       .  A
O624       Ni647   1.910       .  S
O624        C633   1.269       .  A
O625        H648   0.965       .  S
O625       Ni629   1.926       .  S
O625       Ni647   1.976       .  S
O625       Ni641   1.855       .  S
C626        O643   1.241       .  A
C626        O635   1.263       .  A
O627       Ni646   1.929       .  S
O627        C633   1.275       .  A
O628       Ni646   1.920       .  S
O628        C630   1.273       .  A
Ni629       O632   1.875       .  S
Ni629       O634   1.922       .  S
C630        O640   1.283       .  A
O631       Ni647   1.882       .  S
O631        C637   1.242       .  A
O632        C637   1.263       .  A
C633        C720   1.497       .  S
O634        C636   1.274       .  A
O635       Ni646   1.877       .  S
C636        O642   1.283       .  A
H638        O639   0.966       .  S
O639       Ni647   1.859       .  S
O639       Ni641   1.976       .  S
O639       Ni646   1.923       .  S
O640       Ni641   1.960       .  S
Ni641       O645   1.903       .  S
Ni641       O643   1.882       .  S
O642       Ni647   1.959       .  S
C644        O645   1.268       .  A
C644        C706   1.488       .  S
O649       Ni657   1.991   1_554  S
O649       C1747   1.296       .  A
O650       C1748   1.294       .  A
O651       C2021   1.281       .  A
O652       Ni657   1.922       .  S
O652       C1750   1.281       .  A
O653        C934   1.280   1_455  A
O654       Ni658   1.916   1_565  S
O654        C661   1.280       .  A
O655       Ni658   1.986       .  S
O655        C660   1.295   1_445  A
O656       Ni930   1.985   1_554  S
Ni657     Ni1474   2.375       .  S
Ni658       O928   1.980       .  S
Ni658     Ni1473   2.375   1_445  S
C659       O1737   1.296       .  A
C660       O1738   1.294       .  A
C661       O2011   1.282   1_455  A
C661        C807   1.479       .  S
C662       O1740   1.281       .  A
C662        O925   1.281   1_655  A
C662        C790   1.486       .  S
O663       Ni671   1.984       .  S
O663       C1761   1.294       .  A
O664       C1762   1.294       .  A
O665       C1763   1.279       .  A
O666       Ni671   1.911       .  S
O666       C1764   1.281       .  A
O667        C676   1.279   1_455  A
O668       Ni672   1.910   1_565  S
O668        C675   1.281   1_455  A
O669       Ni672   1.990       .  S
O669        C674   1.296   1_445  A
O670       Ni672   1.988       .  S
Ni671     Ni1216   2.373       .  S
Ni672     Ni1215   2.373   1_445  S
C673       O1751   1.294       .  A
C674       O1752   1.294       .  A
C675       O1753   1.279       .  A
C675        C776   1.486       .  S
C676       O1754   1.281       .  A
C676        C762   1.482       .  S
O677        C687   1.294   1_565  A
O678       Ni685   1.987       .  S
O678        C688   1.295       .  A
O679       Ni685   1.910       .  S
O679        C689   1.280       .  A
O680        C962   1.280       .  A
O681       Ni686   1.914   1_565  S
O681        C690   1.281       .  A
O682        C689   1.282       .  A
O683       Ni958   1.987       .  S
O684       Ni686   1.986       .  S
O684        C687   1.295       .  A
Ni686       O955   1.985       .  S
C689        C737   1.490       .  S
C690        O952   1.280       .  A
C690        C748   1.492       .  S
O691        C701   1.294       .  A
O692       Ni699   1.989       .  S
O692        C702   1.295       .  A
O693       Ni699   1.917       .  S
O693        C703   1.282       .  A
O694        C704   1.280       .  A
O695       Ni700   1.918   1_565  S
O695        C704   1.281       .  A
O696        C703   1.280       .  A
O697       Ni700   1.985       .  S
O698       Ni700   1.989       .  S
O698        C701   1.296   1_545  A
C703        C709   1.485       .  S
C704        C723   1.477       .  S
C705        C706   1.408       .  A
C705        C710   1.408       .  A
C705        H712   1.084       .  S
C706        C707   1.414       .  A
C707        C708   1.404       .  A
C707        N714   1.439       .  S
C708        C709   1.405       .  A
C708        H713   1.084       .  S
C709        C710   1.414       .  A
C710        N711   1.438       .  S
N711        H715   1.046       .  S
N711        H716   1.044       .  S
N714        H717   1.045       .  S
N714        H718   1.046       .  S
C719        C720   1.409       .  A
C719        C724   1.404       .  A
C719        H726   1.083       .  S
C720        C721   1.422       .  A
C721        C722   1.410       .  A
C721        N728   1.438       .  S
C722        C723   1.401       .  A
C722        H727   1.084       .  S
C723        C724   1.408       .  A
C724        N725   1.439       .  S
N725        H729   1.046       .  S
N725        H730   1.046       .  S
N728        H731   1.046       .  S
N728        H732   1.046       .  S
C733       C1006   1.401       .  A
C733        C738   1.401       .  A
C733        H740   1.084       .  S
C734       C1005   1.402       .  A
C734        C735   1.410       .  A
C735        C736   1.408       .  A
C735        N742   1.437   1_554  S
C736        C737   1.409       .  A
C736        H741   1.083       .  S
C737       C1010   1.417       .  A
C738       C1009   1.416       .  A
C738        N739   1.438       .  S
N739        H743   1.045       .  S
N739        H744   1.046       .  S
N742        H745   1.046       .  S
N742        H746   1.045       .  S
C747       C1020   1.411       .  A
C747        C752   1.407       .  A
C747        H754   1.083       .  S
C748       C1019   1.412       .  A
C748        C749   1.415       .  A
C749        C750   1.399       .  A
C749        N756   1.438       .  S
C750        C751   1.405       .  A
C750        H755   1.084       .  S
C751       C1024   1.410       .  A
C752       C1023   1.409       .  A
C752        N753   1.438       .  S
N753        H757   1.046       .  S
N753        H758   1.046   1_556  S
N756        H759   1.046       .  S
N756        H760   1.045       .  S
C761        C762   1.408   1_455  A
C761        C766   1.411       .  A
C761        H768   1.083       .  S
C762       C1851   1.410       .  A
C763       C1850   1.410       .  A
C763        C764   1.396       .  A
C763        N770   1.440       .  S
C764        C765   1.410       .  A
C764        H769   1.083       .  S
C765       C1854   1.415       .  A
C766       C1853   1.415   1_455  A
C766        N767   1.437       .  S
N767        H771   1.046       .  S
N767        H772   1.045       .  S
N770        H773   1.046       .  S
N770        H774   1.046       .  S
C775        C776   1.406   1_455  A
C775        C780   1.401       .  A
C775        H782   1.083       .  S
C776       C1865   1.418       .  A
C777       C1864   1.418       .  A
C777        C778   1.406       .  A
C777        N784   1.438       .  S
C778       C1867   1.401       .  A
C778        H783   1.084       .  S
C779       C1866   1.401   1_455  A
C779        C780   1.410       .  A
C780        N781   1.438       .  S
N781        H785   1.046       .  S
N781        H786   1.046       .  S
N784        H787   1.046       .  S
N784        H788   1.046       .  S
C789       C1062   1.404   1_455  A
C789        C794   1.400       .  A
C789        H796   1.084       .  S
C790       C1061   1.404   1_656  A
C790       C1879   1.416       .  A
C791       C1878   1.416       .  A
C791        C792   1.401       .  A
C791        N798   1.433       .  S
C792        C793   1.408       .  A
C792        H797   1.084       .  S
C793       C2154   1.421   1_556  A
C794       C2153   1.420   1_455  A
C794        N795   1.433       .  S
N795        H799   1.044       .  S
N795        H800   1.046       .  S
N798        H801   1.045       .  S
N798        H802   1.046       .  S
C803       C1892   1.411       .  A
C803        C808   1.408       .  A
C803       H1082   1.083       .  S
C804       C1891   1.411   1_455  A
C804        C805   1.423       .  A
C805        C806   1.398       .  A
C805        N812   1.433       .  S
C806        C807   1.401       .  A
C806        H811   1.084       .  S
C807       C1896   1.408   1_455  A
C808       C1895   1.408       .  A
C808       N1081   1.438       .  S
N809       C1080   1.438       .  S
N809       H1085   1.046       .  S
N809       H1086   1.046       .  S
H810       C1075   1.083       .  S
N812        H815   1.044       .  S
N812        H816   1.045       .  S
H813       N1081   1.046       .  S
H814       N1081   1.046       .  S
O817       Ni823   1.933       .  S
O818       Ni841   1.908       .  S
O818       C1915   1.270   1_556  A
O819        H842   0.965       .  S
O819      Ni1911   1.922   1_455  S
O819      Ni1929   1.977       .  S
C820        O837   1.243       .  A
C820        O829   1.262   1_655  A
C820       C1945   1.456       .  S
O821       Ni840   1.924       .  S
O822       Ni840   1.920       .  S
O822        C824   1.274       .  A
Ni823       O826   1.877       .  S
Ni823       O828   1.920       .  S
Ni823      O1907   1.922       .  S
C824        O834   1.286       .  A
O825       Ni841   1.883       .  S
O825        C831   1.242       .  A
O826        C831   1.263       .  A
C827       O1906   1.270   1_454  A
C827       C1076   1.495       .  S
O828        C830   1.274       .  A
O829       Ni840   1.870       .  S
C830        O836   1.285       .  A
C831       C1934   1.450       .  S
H832        O833   0.965       .  S
O833      Ni1923   1.975       .  S
O833      Ni1928   1.922       .  S
O834       Ni835   1.968   1_455  S
Ni835       O839   1.910   1_655  S
Ni835       O837   1.886       .  S
Ni835      O1921   1.975       .  S
O836       Ni841   1.967       .  S
C838       O1927   1.269       .  A
C838       C1065   1.492       .  S
O839       C1926   1.269   1_455  A
Ni840      O1921   1.922   1_455  S
Ni841      O1907   1.977       .  S
O843       Ni849   1.905       .  S
O843        C864   1.271       .  A
O844       Ni867   1.914       .  S
O844       C1941   1.271       .  A
O845        H868   0.967   1_655  S
O845      Ni1937   1.935       .  S
O845      Ni1955   1.966       .  S
O845       Ni861   1.867   1_655  S
C846        O863   1.245       .  A
C846        O855   1.256       .  A
C846       C1919   1.450       .  S
O847       Ni866   1.920       .  S
O847        C853   1.272       .  A
O848       Ni866   1.906       .  S
O848        C850   1.273       .  A
Ni849       O852   1.889       .  S
Ni849       O854   1.902       .  S
Ni849      O1933   1.935       .  S
C850        O860   1.286       .  A
C850        C908   1.483       .  S
O851       Ni867   1.902       .  S
O851        C857   1.247       .  A
O852        C857   1.253       .  A
C853       O1932   1.271   1_455  A
C853       C1051   1.478       .  S
O854        C856   1.271       .  A
O855       Ni866   1.894       .  S
C856        O862   1.288       .  A
C856        C902   1.484       .  S
C857       C1908   1.456       .  S
H858        O859   0.960       .  S
O859       Ni867   1.868       .  S
O859      Ni1949   1.974       .  S
O859      Ni1954   1.936       .  S
O860       Ni861   1.973       .  S
Ni861       O865   1.915       .  S
Ni861       O863   1.897       .  S
Ni861      O1947   1.974       .  S
O862       Ni867   1.979       .  S
C864       O1953   1.271       .  A
C864       C1037   1.485       .  S
O865       C1952   1.271   1_455  A
Ni866      O1947   1.936       .  S
Ni867      O1933   1.966       .  S
O869       Ni875   1.919       .  S
O870       Ni893   1.921       .  S
O870        C879   1.274   1_556  A
O871        H894   0.962       .  S
O871       Ni875   1.937       .  S
O871       Ni893   1.974       .  S
C872        O889   1.244       .  A
C872        O881   1.254       .  A
C872        C909   1.453       .  S
O873       Ni892   1.905       .  S
O874       Ni892   1.905       .  S
O874        C876   1.272       .  A
Ni875       O878   1.893       .  S
Ni875       O880   1.905       .  S
C876        O886   1.286       .  A
O877       Ni893   1.899       .  S
O877        C883   1.246       .  A
O878        C883   1.255       .  A
C879       C1023   1.481   1_554  S
O880        C882   1.273   1_556  A
O881       Ni892   1.889       .  S
C882        O888   1.288   1_554  A
C883        C898   1.452       .  S
H884        O885   0.960       .  S
O885       Ni887   1.970       .  S
O885       Ni892   1.935       .  S
O886       Ni887   1.972       .  S
Ni887       O891   1.910       .  S
Ni887       O889   1.898       .  S
O888       Ni893   1.976       .  S
C890        O891   1.269       .  A
C890       C1006   1.478       .  S
O895       Ni901   1.931       .  S
O895        C916   1.274       .  A
O896       Ni919   1.908       .  S
O896        C905   1.269       .  A
O897        H920   0.965       .  S
O897       Ni901   1.922       .  S
O897       Ni919   1.977       .  S
O897       Ni913   1.858       .  S
C898        O915   1.242       .  A
C898        O907   1.262       .  A
O899       Ni918   1.923       .  S
O899        C905   1.274       .  A
O900       Ni918   1.920       .  S
O900        C902   1.273       .  A
Ni901       O904   1.874       .  S
Ni901       O906   1.925       .  S
C902        O912   1.285       .  A
O903       Ni919   1.884       .  S
O903        C909   1.242       .  A
O904        C909   1.263       .  A
C905        C992   1.494       .  S
O906        C908   1.276       .  A
O907       Ni918   1.872       .  S
C908        O914   1.284       .  A
H910        O911   0.966       .  S
O911       Ni919   1.858       .  S
O911       Ni913   1.975       .  S
O911       Ni918   1.923       .  S
O912       Ni913   1.967       .  S
Ni913       O917   1.909       .  S
Ni913       O915   1.884       .  S
O914       Ni919   1.963       .  S
C916        O917   1.269       .  A
C916        C978   1.496       .  S
O921       Ni929   1.989       .  S
O921       C2019   1.295       .  A
O922       C2020   1.294       .  A
O923       C1749   1.282       .  A
O924       Ni929   1.920       .  S
O924       C2022   1.281       .  A
O926       Ni930   1.914   1_565  S
O926        C933   1.280       .  A
O927       Ni930   1.988       .  S
O927        C932   1.295   1_445  A
Ni929     Ni1202   2.375       .  S
Ni930     Ni1201   2.375   1_445  S
C931       O2009   1.295       .  A
C932       O2010   1.294       .  A
C933       O1739   1.281   1_455  A
C933       C1079   1.475       .  S
C934       O2012   1.281       .  A
C934       C1062   1.484       .  S
O935       Ni943   1.983       .  S
O935       C2033   1.294       .  A
O936       C2034   1.294   1_565  A
O937       C2035   1.279       .  A
O938       Ni943   1.909       .  S
O938       C2036   1.280       .  A
O939        C948   1.280   1_455  A
O940       Ni944   1.913   1_565  S
O940        C947   1.282   1_455  A
O941       Ni944   1.984       .  S
O941        C946   1.294   1_455  A
O942       Ni944   1.986       .  S
Ni943     Ni1488   2.373       .  S
Ni944     Ni1487   2.373   1_445  S
C945       O2023   1.294       .  A
C946       O2024   1.294   1_545  A
C947       O2025   1.279       .  A
C947       C1048   1.487       .  S
C948       O2026   1.280       .  A
C948       C1034   1.489       .  S
O949        C959   1.294   1_565  A
O950       Ni957   1.988       .  S
O950        C960   1.295       .  A
O951       Ni957   1.912       .  S
O951        C961   1.281       .  A
O953       Ni958   1.917   1_566  S
O953        C962   1.281       .  A
O954        C961   1.281       .  A
O956       Ni958   1.986   1_556  S
O956        C959   1.295       .  A
C961       C1009   1.489       .  S
C962       C1020   1.490       .  S
O963        C973   1.294       .  A
O964       Ni971   1.989       .  S
O964        C974   1.295       .  A
O965       Ni971   1.916       .  S
O965        C975   1.281       .  A
O966        C976   1.279       .  A
O967       Ni972   1.919   1_565  S
O967        C976   1.281       .  A
O968        C975   1.281       .  A
O969       Ni972   1.982       .  S
O970       Ni972   1.988       .  S
O970        C973   1.295   1_545  A
C975        C981   1.481       .  S
C976        C995   1.474       .  S
C977        C978   1.411       .  A
C977        C982   1.410       .  A
C977        H984   1.083       .  S
C978        C979   1.418       .  A
C979        C980   1.406       .  A
C979        N986   1.438       .  S
C980        C981   1.402       .  A
C980        H985   1.084       .  S
C981        C982   1.411       .  A
C982        N983   1.439       .  S
N983        H987   1.046       .  S
N983        H988   1.043       .  S
N986        H989   1.046       .  S
N986        H990   1.046       .  S
C991        C992   1.410       .  A
C991        C996   1.403       .  A
C991        H998   1.083       .  S
C992        C993   1.421       .  A
C993        C994   1.408       .  A
C993       N1000   1.438       .  S
C994        C995   1.401       .  A
C994        H999   1.084       .  S
C995        C996   1.407       .  A
C996        N997   1.439       .  S
N997       H1001   1.046       .  S
N997       H1002   1.046       .  S
N1000      H1003   1.046       .  S
N1000      H1004   1.046       .  S
C1005      C1010   1.402       .  A
C1005      H1012   1.084       .  S
C1006      C1007   1.410       .  A
C1007      C1008   1.408       .  A
C1007      N1014   1.437       .  S
C1008      C1009   1.409       .  A
C1008      H1013   1.082       .  S
C1010      N1011   1.438       .  S
N1011      H1015   1.045       .  S
N1011      H1016   1.046       .  S
N1014      H1017   1.046       .  S
N1014      H1018   1.044       .  S
C1019      C1024   1.411       .  A
C1019      H1026   1.083       .  S
C1020      C1021   1.415       .  A
C1021      C1022   1.401       .  A
C1021      N1028   1.438       .  S
C1022      C1023   1.405       .  A
C1022      H1027   1.084       .  S
C1024      N1025   1.437       .  S
N1025      H1029   1.046       .  S
N1025      H1030   1.045       .  S
N1028      H1031   1.046       .  S
N1028      H1032   1.045       .  S
C1033      C1034   1.411   1_455  A
C1033      C1038   1.412       .  A
C1033      H1040   1.083       .  S
C1034      C2123   1.414       .  A
C1035      C2122   1.414       .  A
C1035      C1036   1.395       .  A
C1035      N1042   1.439       .  S
C1036      C1037   1.404       .  A
C1036      H1041   1.084       .  S
C1037      C2126   1.413       .  A
C1038      C2125   1.413   1_455  A
C1038      N1039   1.438       .  S
N1039      H1043   1.046       .  S
N1039      H1044   1.046       .  S
N1042      H1045   1.046       .  S
N1042      H1046   1.046       .  S
C1047      C1048   1.405   1_455  A
C1047      C1052   1.400       .  A
C1047      H1054   1.083       .  S
C1048      C2137   1.419       .  A
C1049      C2136   1.419       .  A
C1049      C1050   1.408       .  A
C1049      N1056   1.438       .  S
C1050      C2139   1.402       .  A
C1050      H1055   1.084       .  S
C1051      C2138   1.402   1_455  A
C1051      C1052   1.411       .  A
C1052      N1053   1.438       .  S
N1053      H1057   1.046       .  S
N1053      H1058   1.045       .  S
N1056      H1059   1.046       .  S
N1056      H1060   1.046       .  S
C1061      C1066   1.402       .  A
C1061      H1068   1.083       .  S
C1062      C2151   1.415       .  A
C1063      C2150   1.415       .  A
C1063      C1064   1.400       .  A
C1063      N1070   1.433       .  S
C1064      C1065   1.407       .  A
C1064      H1069   1.083       .  S
C1065      C1882   1.420       .  A
C1066      C1881   1.421   1_454  A
C1066      N1067   1.433       .  S
N1067      H1071   1.045       .  S
N1067      H1072   1.046       .  S
N1070      H1073   1.044       .  S
N1070      H1074   1.046       .  S
C1075      C2164   1.412   1_556  A
C1075      C1080   1.408       .  A
C1076      C2163   1.412   1_454  A
C1076      C1077   1.423       .  A
C1077      C1078   1.397       .  A
C1077      N1084   1.433       .  S
C1078      C1079   1.400   1_554  A
C1078      H1083   1.084       .  S
C1079      C2168   1.407   1_455  A
C1080      C2167   1.407       .  A
N1084      H1087   1.044       .  S
N1084      H1088   1.045       .  S
O1089     Ni1095   1.930       .  S
O1089      C1382   1.274       .  A
O1090     Ni1113   1.911   1_655  S
O1091      H1114   0.965       .  S
O1091     Ni1379   1.858       .  S
C1092      O1109   1.241       .  A
C1092      O1101   1.261       .  A
O1093     Ni1112   1.924       .  S
O1093      C1371   1.272       .  A
O1094     Ni1112   1.918       .  S
O1094      C1096   1.274       .  A
Ni1095     O1098   1.873       .  S
Ni1095     O1100   1.920       .  S
C1096      O1106   1.285       .  A
C1096      C1426   1.482       .  S
O1097     Ni1113   1.882       .  S
O1097      C1103   1.241       .  A
O1098      C1103   1.262   1_655  A
C1099      O1365   1.271       .  A
C1099      C1348   1.496       .  S
O1100      C1102   1.275       .  A
O1101     Ni1112   1.869       .  S
C1102      O1108   1.285       .  A
C1102      C1420   1.482       .  S
H1104      O1105   0.965       .  S
O1105     Ni1385   1.854   1_654  S
O1106     Ni1107   1.967       .  S
Ni1107     O1111   1.910       .  S
Ni1107     O1109   1.883       .  S
Ni1107     O1363   1.859   1_554  S
O1108     Ni1113   1.966   1_655  S
C1110      O1361   1.275       .  A
C1110      C1337   1.495       .  S
Ni1113     O1377   1.855   1_455  S
O1115     Ni1121   1.903       .  S
O1115      C1136   1.270       .  A
O1116     Ni1139   1.908       .  S
O1117      H1140   0.966       .  S
O1117     Ni1133   1.865       .  S
C1118      O1135   1.246       .  A
C1118      O1127   1.256       .  A
O1119     Ni1138   1.921       .  S
O1119      C1125   1.271       .  A
O1120     Ni1138   1.899       .  S
O1120      C1122   1.271       .  A
Ni1121     O1124   1.887       .  S
Ni1121     O1126   1.899       .  S
C1122      O1132   1.286       .  A
C1122      C1180   1.478       .  S
O1123     Ni1139   1.899       .  S
O1123      C1129   1.244       .  A
O1124      C1129   1.253       .  A
C1125      C1323   1.475       .  S
O1126      C1128   1.271       .  A
O1127     Ni1138   1.895       .  S
C1128      O1134   1.287       .  A
C1128      C1174   1.480       .  S
H1130      O1131   0.960   1_655  S
O1131     Ni1139   1.862   1_455  S
O1132     Ni1133   1.974       .  S
Ni1133     O1137   1.923       .  S
Ni1133     O1135   1.899       .  S
O1134     Ni1139   1.976       .  S
C1136      C1309   1.491       .  S
O1141     Ni1147   1.922       .  S
O1141      C1434   1.273       .  A
O1142     Ni1165   1.925       .  S
O1142      C1151   1.275       .  A
O1143      H1166   0.963       .  S
O1143     Ni1147   1.936       .  S
O1143     Ni1165   1.974       .  S
O1143     Ni1431   1.865       .  S
C1144      O1161   1.244       .  A
C1144      O1153   1.254       .  A
C1144      C1181   1.452       .  S
O1145     Ni1164   1.909       .  S
O1145      C1423   1.271       .  A
O1146     Ni1164   1.903       .  S
O1146      C1148   1.272   1_554  A
Ni1147     O1150   1.895       .  S
Ni1147     O1152   1.907       .  S
C1148      O1158   1.287   1_556  A
C1148      C1374   1.483       .  S
O1149     Ni1165   1.898       .  S
O1149      C1155   1.245       .  A
O1150      C1155   1.257       .  A
C1151      O1417   1.270       .  A
C1151      C1295   1.484       .  S
O1152      C1154   1.273       .  A
O1153     Ni1164   1.891       .  S
C1154      O1160   1.287       .  A
C1154      C1368   1.484       .  S
C1155      C1170   1.450       .  S
H1156      O1157   0.960       .  S
O1157     Ni1437   1.866   1_554  S
O1157     Ni1159   1.971       .  S
O1157     Ni1164   1.936       .  S
O1158     Ni1159   1.973       .  S
Ni1159     O1163   1.913       .  S
Ni1159     O1161   1.897       .  S
Ni1159     O1415   1.866   1_554  S
O1160     Ni1165   1.974       .  S
C1162      O1413   1.272       .  A
C1162      O1163   1.271   1_556  A
C1162      C1278   1.480   1_556  S
Ni1165     O1429   1.869       .  S
O1167     Ni1173   1.930       .  S
O1167      C1188   1.274       .  A
O1168     Ni1191   1.910       .  S
O1168      C1177   1.269       .  A
O1169      H1192   0.965       .  S
O1169     Ni1173   1.926       .  S
O1169     Ni1191   1.977       .  S
O1169     Ni1185   1.855       .  S
C1170      O1187   1.241       .  A
C1170      O1179   1.263       .  A
O1171     Ni1190   1.929       .  S
O1171      C1177   1.275       .  A
O1172     Ni1190   1.920       .  S
O1172      C1174   1.273       .  A
Ni1173     O1176   1.875       .  S
Ni1173     O1178   1.922       .  S
C1174      O1184   1.283       .  A
O1175     Ni1191   1.882       .  S
O1175      C1181   1.242       .  A
O1176      C1181   1.263       .  A
C1177      C1264   1.497       .  S
O1178      C1180   1.274       .  A
O1179     Ni1190   1.877       .  S
C1180      O1186   1.283       .  A
H1182      O1183   0.966       .  S
O1183     Ni1191   1.859       .  S
O1183     Ni1185   1.976       .  S
O1183     Ni1190   1.923       .  S
O1184     Ni1185   1.960       .  S
Ni1185     O1189   1.903       .  S
Ni1185     O1187   1.882       .  S
O1186     Ni1191   1.959       .  S
C1188      O1189   1.268       .  A
C1188      C1250   1.488       .  S
O1193     Ni1201   1.991   1_554  S
O1194     Ni2017   1.984       .  S
O1195     Ni1745   1.922       .  S
O1196     Ni1201   1.922   1_545  S
O1197     Ni1746   1.914       .  S
O1197      C1478   1.280       .  A
O1198     Ni1202   1.916       .  S
O1198      C1205   1.280       .  A
O1199     Ni1202   1.986       .  S
O1199      C1204   1.295       .  A
O1200     Ni1474   1.985   1_554  S
O1200      C1747   1.294       .  A
Ni1201     O2010   1.983       .  S
Ni1201     O1739   1.922       .  S
Ni1202     O1741   1.913       .  S
Ni1202     O1472   1.980       .  S
C1203      O1744   1.294   1_565  A
C1203      C1762   1.557       .  S
C1204      C1761   1.554       .  S
C1205      C1351   1.479       .  S
C1206      O1469   1.281       .  A
C1206      C1334   1.486       .  S
O1207     Ni1215   1.984       .  S
O1208     Ni1759   1.986       .  S
O1209     Ni1759   1.913       .  S
O1210     Ni1215   1.911   1_545  S
O1211     Ni1760   1.914       .  S
O1211      C1220   1.279       .  A
O1212     Ni1216   1.910       .  S
O1212      C1219   1.281       .  A
O1213     Ni1216   1.990       .  S
O1213      C1218   1.296       .  A
O1214     Ni1216   1.988       .  S
O1214      C1761   1.295       .  A
Ni1215     O1752   1.986       .  S
Ni1215     O1753   1.913       .  S
Ni1216     O1755   1.914       .  S
C1217      O1758   1.295   1_565  A
C1217      C1748   1.554       .  S
C1218      C1747   1.557       .  S
C1219      C1320   1.486       .  S
C1220      C1306   1.482       .  S
O1221     Ni2045   1.986       .  S
O1221      C1231   1.294       .  A
O1222     Ni1229   1.987       .  S
O1222      C1232   1.295       .  A
O1223     Ni1229   1.910   1_545  S
O1223      C1233   1.280       .  A
O1224     Ni1773   1.912       .  S
O1224      C1506   1.280   1_554  A
O1225     Ni1230   1.913       .  S
O1225      C1234   1.281       .  A
O1226     Ni2046   1.919       .  S
O1226      C1233   1.282       .  A
O1227     Ni1502   1.987       .  S
O1227      C1776   1.294       .  A
O1228     Ni1230   1.986       .  S
O1228      C1231   1.295       .  A
Ni1229     O2037   1.984   1_554  S
Ni1229     O1768   1.912   1_554  S
Ni1229    Ni2046   2.372   1_565  S
Ni1230     O2042   1.917       .  S
Ni1230     O1499   1.985       .  S
Ni1230    Ni2045   2.372       .  S
C1231      C1790   1.555       .  S
C1232      O1771   1.294   1_565  A
C1232      C1789   1.555       .  S
C1233      C1281   1.490       .  S
C1234      O1496   1.280       .  A
C1234      C1292   1.492       .  S
O1235     Ni1787   1.983       .  S
O1235      C1245   1.294       .  A
O1236     Ni1243   1.989       .  S
O1236      C1246   1.295   1_565  A
O1237     Ni1243   1.917   1_545  S
O1237      C1247   1.282       .  A
O1238     Ni1787   1.919       .  S
O1238      C1248   1.280       .  A
O1239     Ni1244   1.918       .  S
O1239      C1248   1.281       .  A
O1240     Ni1788   1.919       .  S
O1240      C1247   1.280       .  A
O1241     Ni1244   1.985       .  S
O1241      C1790   1.294       .  A
O1242     Ni1244   1.989       .  S
O1242      C1245   1.296       .  A
Ni1243     O1779   1.984       .  S
Ni1243     O1782   1.919       .  S
Ni1243    Ni1788   2.375   1_565  S
Ni1244     O1784   1.919       .  S
Ni1244    Ni1787   2.375       .  S
C1245      C1776   1.555       .  S
C1246      O1785   1.294       .  A
C1246      C1775   1.555       .  S
C1247      C1253   1.485       .  S
C1248      C1267   1.477       .  S
C1249      C1250   1.408       .  A
C1249      C1254   1.408       .  A
C1249      H1256   1.084       .  S
C1250      C1251   1.414       .  A
C1251      C1252   1.404       .  A
C1251      N1258   1.439       .  S
C1252      C1253   1.405       .  A
C1252      H1257   1.084       .  S
C1253      C1254   1.414       .  A
C1254      N1255   1.438       .  S
N1255      H1259   1.046       .  S
N1255      H1260   1.044       .  S
N1258      H1261   1.045       .  S
N1258      H1262   1.046       .  S
C1263      C1264   1.409       .  A
C1263      C1268   1.404       .  A
C1263      H1270   1.083       .  S
C1264      C1265   1.422       .  A
C1265      C1266   1.410       .  A
C1265      N1272   1.438       .  S
C1266      C1267   1.402       .  A
C1266      H1271   1.084       .  S
C1267      C1268   1.408       .  A
C1268      N1269   1.439       .  S
N1269      H1273   1.046       .  S
N1269      H1274   1.046       .  S
N1272      H1275   1.046       .  S
N1272      H1276   1.046       .  S
C1277      C1550   1.401       .  A
C1277      C1282   1.401       .  A
C1277      H1284   1.084       .  S
C1278      C1549   1.402       .  A
C1278      C1279   1.410       .  A
C1279      C1280   1.408       .  A
C1279      N1286   1.437   1_554  S
C1280      C1281   1.409       .  A
C1280      H1285   1.083       .  S
C1281      C1554   1.417       .  A
C1282      C1553   1.416       .  A
C1282      N1283   1.438       .  S
N1283      H1287   1.045       .  S
N1283      H1288   1.046       .  S
N1286      H1289   1.046       .  S
N1286      H1290   1.045   1_556  S
C1291      C1564   1.411       .  A
C1291      C1296   1.407       .  A
C1291      H1298   1.083       .  S
C1292      C1563   1.412       .  A
C1292      C1293   1.415       .  A
C1293      C1294   1.399       .  A
C1293      N1300   1.438       .  S
C1294      C1295   1.405       .  A
C1294      H1299   1.084       .  S
C1295      C1568   1.410       .  A
C1296      C1567   1.409       .  A
C1296      N1297   1.438       .  S
N1297      H1301   1.046       .  S
N1297      H1302   1.046   1_556  S
N1300      H1303   1.046       .  S
N1300      H1304   1.045       .  S
C1305      C1306   1.408       .  A
C1305      C1310   1.411       .  A
C1305      H1312   1.083       .  S
C1307      C1308   1.396       .  A
C1307      N1314   1.440       .  S
C1308      C1309   1.410       .  A
C1308      H1313   1.083       .  S
C1310      N1311   1.437       .  S
N1311      H1315   1.046       .  S
N1311      H1316   1.045       .  S
N1314      H1317   1.046       .  S
N1314      H1318   1.046       .  S
C1319      C1320   1.406       .  A
C1319      C1324   1.401       .  A
C1319      H1326   1.083       .  S
C1321      C1322   1.406       .  A
C1321      N1328   1.438       .  S
C1322      H1327   1.084       .  S
C1323      C1324   1.410       .  A
C1324      N1325   1.438       .  S
N1325      H1329   1.046       .  S
N1325      H1330   1.046       .  S
N1328      H1331   1.046       .  S
N1328      H1332   1.046       .  S
C1333      C1606   1.404       .  A
C1333      C1338   1.400       .  A
C1333      H1340   1.084       .  S
C1334      C1605   1.404   1_556  A
C1335      C1336   1.401       .  A
C1335      N1342   1.433       .  S
C1336      C1337   1.408       .  A
C1336      H1341   1.084       .  S
C1338      N1339   1.433       .  S
N1339      H1343   1.044       .  S
N1339      H1344   1.046       .  S
N1342      H1345   1.045       .  S
N1342      H1346   1.046       .  S
C1347      C1352   1.408       .  A
C1347      H1626   1.083       .  S
C1348      C1349   1.423       .  A
C1349      C1350   1.398       .  A
C1349      N1356   1.433       .  S
C1350      C1351   1.401       .  A
C1350      H1355   1.084       .  S
C1352      N1625   1.438       .  S
N1353      C1624   1.438       .  S
N1353      H1629   1.046       .  S
N1353      H1630   1.046       .  S
H1354      C1619   1.083       .  S
N1356      H1359   1.044       .  S
N1356      H1360   1.045       .  S
H1357      N1625   1.046       .  S
H1358      N1625   1.046       .  S
O1361     Ni1367   1.933       .  S
O1362     Ni1385   1.908   1_655  S
O1363      H1386   0.965       .  S
C1364      O1381   1.243       .  A
C1364      O1373   1.262       .  A
O1365     Ni1384   1.924       .  S
O1366     Ni1384   1.920       .  S
O1366      C1368   1.274       .  A
Ni1367     O1370   1.877       .  S
Ni1367     O1372   1.920       .  S
C1368      O1378   1.286       .  A
O1369     Ni1385   1.883       .  S
O1369      C1375   1.242       .  A
O1370      C1375   1.263   1_655  A
C1371      C1620   1.495       .  S
O1372      C1374   1.274       .  A
O1373     Ni1384   1.870       .  S
C1374      O1380   1.285       .  A
H1376      O1377   0.965       .  S
O1378     Ni1379   1.968       .  S
Ni1379     O1383   1.910       .  S
Ni1379     O1381   1.886       .  S
O1380     Ni1385   1.967   1_655  S
C1382      C1609   1.492       .  S
O1387     Ni1393   1.905       .  S
O1387      C1408   1.271       .  A
O1388     Ni1411   1.914       .  S
O1389      H1412   0.967       .  S
O1389     Ni1405   1.867       .  S
C1390      O1407   1.245       .  A
C1390      O1399   1.256       .  A
O1391     Ni1410   1.921       .  S
O1391      C1397   1.272       .  A
O1392     Ni1410   1.906       .  S
O1392      C1394   1.273       .  A
Ni1393     O1396   1.889       .  S
Ni1393     O1398   1.902       .  S
C1394      O1404   1.286       .  A
C1394      C1452   1.483       .  S
O1395     Ni1411   1.902       .  S
O1395      C1401   1.247       .  A
O1396      C1401   1.253       .  A
C1397      C1595   1.478       .  S
O1398      C1400   1.271       .  A
O1399     Ni1410   1.894       .  S
C1400      O1406   1.288       .  A
C1400      C1446   1.484       .  S
H1402      O1403   0.960   1_655  S
O1403     Ni1411   1.868   1_455  S
O1404     Ni1405   1.973       .  S
Ni1405     O1409   1.915       .  S
Ni1405     O1407   1.897       .  S
O1406     Ni1411   1.979       .  S
C1408      C1581   1.485       .  S
O1413     Ni1419   1.919       .  S
O1414     Ni1437   1.921       .  S
O1414      C1423   1.274   1_556  A
O1415      H1438   0.962       .  S
O1415     Ni1419   1.937       .  S
O1415     Ni1437   1.974       .  S
C1416      O1433   1.244       .  A
C1416      O1425   1.254       .  A
C1416      C1453   1.453       .  S
O1417     Ni1436   1.905       .  S
O1418     Ni1436   1.905       .  S
O1418      C1420   1.272       .  A
Ni1419     O1422   1.893       .  S
Ni1419     O1424   1.905       .  S
C1420      O1430   1.286       .  A
O1421     Ni1437   1.899       .  S
O1421      C1427   1.246       .  A
O1422      C1427   1.255       .  A
C1423      C1567   1.481   1_554  S
O1424      C1426   1.273   1_556  A
O1425     Ni1436   1.889       .  S
C1426      O1432   1.288   1_554  A
C1427      C1442   1.452       .  S
H1428      O1429   0.960       .  S
O1429     Ni1431   1.970       .  S
O1429     Ni1436   1.935       .  S
O1430     Ni1431   1.973       .  S
Ni1431     O1435   1.910       .  S
Ni1431     O1433   1.898       .  S
O1432     Ni1437   1.976       .  S
C1434      O1435   1.269       .  A
C1434      C1550   1.478       .  S
O1439     Ni1445   1.931       .  S
O1439      C1460   1.274       .  A
O1440     Ni1463   1.908       .  S
O1440      C1449   1.269       .  A
O1441      H1464   0.965       .  S
O1441     Ni1445   1.922       .  S
O1441     Ni1463   1.977       .  S
O1441     Ni1457   1.858       .  S
C1442      O1459   1.242       .  A
C1442      O1451   1.262       .  A
O1443     Ni1462   1.923       .  S
O1443      C1449   1.274       .  A
O1444     Ni1462   1.920       .  S
O1444      C1446   1.273       .  A
Ni1445     O1448   1.874       .  S
Ni1445     O1450   1.925       .  S
C1446      O1456   1.285       .  A
O1447     Ni1463   1.884       .  S
O1447      C1453   1.242       .  A
O1448      C1453   1.263       .  A
C1449      C1536   1.494       .  S
O1450      C1452   1.276       .  A
O1451     Ni1462   1.872       .  S
C1452      O1458   1.284       .  A
H1454      O1455   0.966       .  S
O1455     Ni1463   1.858       .  S
O1455     Ni1457   1.975       .  S
O1455     Ni1462   1.923       .  S
O1456     Ni1457   1.967       .  S
Ni1457     O1461   1.909       .  S
Ni1457     O1459   1.884       .  S
O1458     Ni1463   1.963       .  S
C1460      O1461   1.269       .  A
C1460      C1522   1.496       .  S
O1465     Ni1473   1.988       .  S
O1466     Ni1745   1.983       .  S
O1467     Ni2017   1.923       .  S
O1468     Ni1473   1.920   1_545  S
O1469     Ni2018   1.916       .  S
O1470     Ni1474   1.914       .  S
O1470      C1477   1.280       .  A
O1471     Ni1474   1.988       .  S
O1471      C1476   1.295       .  A
O1472      C2019   1.293       .  A
Ni1473     O1738   1.984       .  S
Ni1473     O2011   1.923       .  S
Ni1474     O2013   1.916       .  S
C1475      O2016   1.293       .  A
C1475      C2034   1.552       .  S
C1476      C2033   1.553       .  S
C1477      C1623   1.475       .  S
C1478      C1606   1.484       .  S
O1479     Ni1487   1.983       .  S
O1480     Ni2031   1.985       .  S
O1481     Ni2031   1.911       .  S
O1482     Ni1487   1.909   1_545  S
O1483     Ni2032   1.920       .  S
O1483      C1492   1.280       .  A
O1484     Ni1488   1.913       .  S
O1484      C1491   1.282       .  A
O1485     Ni1488   1.984       .  S
O1485      C1490   1.294       .  A
O1486     Ni1488   1.986       .  S
O1486      C2033   1.294       .  A
Ni1487     O2024   1.985       .  S
Ni1487     O2025   1.911       .  S
Ni1488     O2027   1.920       .  S
C1489      O2030   1.294   1_565  A
C1489      C2020   1.553       .  S
C1490      C2019   1.552       .  S
C1491      C1592   1.487       .  S
C1492      C1578   1.488       .  S
O1493     Ni1773   1.984   1_556  S
O1493      C1503   1.294       .  A
O1494     Ni1501   1.988       .  S
O1494      C1504   1.295       .  A
O1495     Ni1501   1.912   1_545  S
O1495      C1505   1.280       .  A
O1496     Ni2045   1.916       .  S
O1497     Ni1502   1.917   1_556  S
O1497      C1506   1.281       .  A
O1498     Ni1774   1.917       .  S
O1498      C1505   1.281       .  A
O1499      C2048   1.294       .  A
O1500     Ni1502   1.986   1_556  S
O1500      C1503   1.295       .  A
Ni1501     O1765   1.986       .  S
Ni1501     O2040   1.916       .  S
Ni1501    Ni1774   2.372   1_565  S
Ni1502     O1770   1.919       .  S
Ni1502    Ni1773   2.372       .  S
C1503      C2062   1.554       .  S
C1504      O2043   1.294   1_565  A
C1504      C2061   1.554       .  S
C1505      C1553   1.489       .  S
C1506      C1564   1.490       .  S
O1507     Ni2059   1.984       .  S
O1507      C1517   1.294       .  A
O1508     Ni1515   1.989   1_545  S
O1508      C1518   1.295       .  A
O1509     Ni1515   1.916   1_545  S
O1509      C1519   1.281       .  A
O1510     Ni2059   1.915       .  S
O1510      C1520   1.279       .  A
O1511     Ni1516   1.919       .  S
O1511      C1520   1.281       .  A
O1512     Ni2060   1.921       .  S
O1512      C1519   1.281       .  A
O1513     Ni1516   1.982       .  S
O1513      C2062   1.293       .  A
O1514     Ni1516   1.988       .  S
O1514      C1517   1.295       .  A
Ni1515     O2051   1.984       .  S
Ni1515     O2054   1.915       .  S
Ni1515    Ni2060   2.376   1_565  S
Ni1516     O2056   1.921       .  S
Ni1516    Ni2059   2.376       .  S
C1517      C2048   1.554       .  S
C1518      O2057   1.293       .  A
C1518      C2047   1.554       .  S
C1519      C1525   1.481       .  S
C1520      C1539   1.474       .  S
C1521      C1522   1.411       .  A
C1521      C1526   1.410       .  A
C1521      H1528   1.083       .  S
C1522      C1523   1.418       .  A
C1523      C1524   1.406       .  A
C1523      N1530   1.438       .  S
C1524      C1525   1.402       .  A
C1524      H1529   1.084       .  S
C1525      C1526   1.411       .  A
C1526      N1527   1.439       .  S
N1527      H1531   1.046       .  S
N1527      H1532   1.043       .  S
N1530      H1533   1.046       .  S
N1530      H1534   1.046       .  S
C1535      C1536   1.410       .  A
C1535      C1540   1.403       .  A
C1535      H1542   1.083       .  S
C1536      C1537   1.421       .  A
C1537      C1538   1.408       .  A
C1537      N1544   1.438       .  S
C1538      C1539   1.401       .  A
C1538      H1543   1.084       .  S
C1539      C1540   1.407       .  A
C1540      N1541   1.439       .  S
N1541      H1545   1.046       .  S
N1541      H1546   1.046       .  S
N1544      H1547   1.046       .  S
N1544      H1548   1.046       .  S
C1549      C1554   1.402       .  A
C1549      H1556   1.084       .  S
C1550      C1551   1.410       .  A
C1551      C1552   1.408       .  A
C1551      N1558   1.437       .  S
C1552      C1553   1.409       .  A
C1552      H1557   1.082       .  S
C1554      N1555   1.438       .  S
N1555      H1559   1.045       .  S
N1555      H1560   1.046       .  S
N1558      H1561   1.046       .  S
N1558      H1562   1.044       .  S
C1563      C1568   1.411       .  A
C1563      H1570   1.083       .  S
C1564      C1565   1.415       .  A
C1565      C1566   1.401       .  A
C1565      N1572   1.438       .  S
C1566      C1567   1.405       .  A
C1566      H1571   1.084       .  S
C1568      N1569   1.437       .  S
N1569      H1573   1.046       .  S
N1569      H1574   1.045       .  S
N1572      H1575   1.046       .  S
N1572      H1576   1.045       .  S
C1577      C1578   1.411       .  A
C1577      C1582   1.412       .  A
C1577      H1584   1.083       .  S
C1579      C1580   1.395       .  A
C1579      N1586   1.439       .  S
C1580      C1581   1.404       .  A
C1580      H1585   1.084       .  S
C1582      N1583   1.438       .  S
N1583      H1587   1.046       .  S
N1583      H1588   1.046       .  S
N1586      H1589   1.046       .  S
N1586      H1590   1.046       .  S
C1591      C1592   1.405       .  A
C1591      C1596   1.400       .  A
C1591      H1598   1.083       .  S
C1593      C1594   1.408       .  A
C1593      N1600   1.438       .  S
C1594      H1599   1.084       .  S
C1595      C1596   1.411       .  A
C1596      N1597   1.438       .  S
N1597      H1601   1.046       .  S
N1597      H1602   1.045       .  S
N1600      H1603   1.046       .  S
N1600      H1604   1.046       .  S
C1605      C1610   1.402       .  A
C1605      H1612   1.083       .  S
C1607      C1608   1.400       .  A
C1607      N1614   1.433       .  S
C1608      C1609   1.407       .  A
C1608      H1613   1.083       .  S
C1610      N1611   1.433       .  S
N1611      H1615   1.045       .  S
N1611      H1616   1.046       .  S
N1614      H1617   1.044       .  S
N1614      H1618   1.046       .  S
C1619      C1624   1.408       .  A
C1620      C1621   1.423       .  A
C1621      C1622   1.397       .  A
C1621      N1628   1.433       .  S
C1622      C1623   1.400   1_554  A
C1622      H1627   1.084       .  S
N1628      H1631   1.044       .  S
N1628      H1632   1.045       .  S
O1633     Ni1639   1.930       .  S
O1633      C1926   1.274       .  A
O1634     Ni1657   1.911   1_655  S
O1635      H1658   0.965       .  S
O1635     Ni1923   1.858       .  S
C1636      O1653   1.241       .  A
C1636      O1645   1.261       .  A
O1637     Ni1656   1.924       .  S
O1637      C1915   1.272       .  A
O1638     Ni1656   1.918       .  S
O1638      C1640   1.274       .  A
Ni1639     O1642   1.873       .  S
Ni1639     O1644   1.920       .  S
C1640      O1650   1.286       .  A
C1640      C1970   1.482       .  S
O1641     Ni1657   1.882       .  S
O1641      C1647   1.241       .  A
O1642      C1647   1.262   1_655  A
C1643      O1909   1.271       .  A
C1643      C1892   1.496       .  S
O1644      C1646   1.275       .  A
O1645     Ni1656   1.869       .  S
C1646      O1652   1.285       .  A
C1646      C1964   1.482       .  S
H1648      O1649   0.965       .  S
O1649     Ni1929   1.854   1_654  S
O1650     Ni1651   1.967       .  S
Ni1651     O1655   1.910       .  S
Ni1651     O1653   1.883       .  S
Ni1651     O1907   1.859   1_554  S
O1652     Ni1657   1.966   1_655  S
C1654      O1905   1.275       .  A
C1654      C1881   1.495       .  S
Ni1657     O1921   1.855   1_455  S
O1659     Ni1665   1.903       .  S
O1659      C1680   1.270       .  A
O1660     Ni1683   1.908       .  S
O1661      H1684   0.966       .  S
O1661     Ni1677   1.865       .  S
C1662      O1679   1.246       .  A
C1662      O1671   1.256       .  A
O1663     Ni1682   1.921       .  S
O1663      C1669   1.271       .  A
O1664     Ni1682   1.899       .  S
O1664      C1666   1.271       .  A
Ni1665     O1668   1.887       .  S
Ni1665     O1670   1.899       .  S
C1666      O1676   1.286       .  A
C1666      C1724   1.478       .  S
O1667     Ni1683   1.899       .  S
O1667      C1673   1.244       .  A
O1668      C1673   1.253       .  A
C1669      C1867   1.475       .  S
O1670      C1672   1.271       .  A
O1671     Ni1682   1.895       .  S
C1672      O1678   1.287       .  A
C1672      C1718   1.480       .  S
H1674      O1675   0.960   1_655  S
O1675     Ni1683   1.862   1_455  S
O1676     Ni1677   1.974       .  S
Ni1677     O1681   1.923       .  S
Ni1677     O1679   1.899       .  S
O1678     Ni1683   1.976       .  S
C1680      C1853   1.491       .  S
O1685     Ni1691   1.922       .  S
O1685      C1978   1.272       .  A
O1686     Ni1709   1.925       .  S
O1686      C1695   1.275       .  A
O1687      H1710   0.963       .  S
O1687     Ni1691   1.936       .  S
O1687     Ni1709   1.974       .  S
O1687     Ni1975   1.865       .  S
C1688      O1705   1.244       .  A
C1688      O1697   1.254       .  A
C1688      C1725   1.452       .  S
O1689     Ni1708   1.909       .  S
O1689      C1967   1.271       .  A
O1690     Ni1708   1.903       .  S
O1690      C1692   1.272   1_554  A
Ni1691     O1694   1.895       .  S
Ni1691     O1696   1.907       .  S
C1692      O1702   1.287   1_556  A
C1692      C1918   1.483       .  S
O1693     Ni1709   1.898       .  S
O1693      C1699   1.245       .  A
O1694      C1699   1.257       .  A
C1695      O1961   1.270       .  A
C1695      C1839   1.484       .  S
O1696      C1698   1.273       .  A
O1697     Ni1708   1.891       .  S
C1698      O1704   1.287       .  A
C1698      C1912   1.484       .  S
C1699      C1714   1.450       .  S
H1700      O1701   0.960       .  S
O1701     Ni1981   1.866   1_554  S
O1701     Ni1703   1.971       .  S
O1701     Ni1708   1.936       .  S
O1702     Ni1703   1.973       .  S
Ni1703     O1707   1.913       .  S
Ni1703     O1705   1.897       .  S
Ni1703     O1959   1.866   1_554  S
O1704     Ni1709   1.974       .  S
C1706      O1957   1.272       .  A
C1706      O1707   1.271   1_556  A
C1706      C1822   1.480   1_556  S
Ni1709     O1973   1.869       .  S
O1711     Ni1717   1.930       .  S
O1711      C1732   1.274       .  A
O1712     Ni1735   1.910       .  S
O1712      C1721   1.269       .  A
O1713      H1736   0.965       .  S
O1713     Ni1717   1.926       .  S
O1713     Ni1735   1.976       .  S
O1713     Ni1729   1.855       .  S
C1714      O1731   1.241       .  A
C1714      O1723   1.263       .  A
O1715     Ni1734   1.929       .  S
O1715      C1721   1.275       .  A
O1716     Ni1734   1.920       .  S
O1716      C1718   1.273       .  A
Ni1717     O1720   1.875       .  S
Ni1717     O1722   1.922       .  S
C1718      O1728   1.283       .  A
O1719     Ni1735   1.882       .  S
O1719      C1725   1.242       .  A
O1720      C1725   1.263       .  A
C1721      C1808   1.497       .  S
O1722      C1724   1.274       .  A
O1723     Ni1734   1.877       .  S
C1724      O1730   1.283       .  A
H1726      O1727   0.966       .  S
O1727     Ni1735   1.859       .  S
O1727     Ni1729   1.976       .  S
O1727     Ni1734   1.923       .  S
O1728     Ni1729   1.960       .  S
Ni1729     O1733   1.903       .  S
Ni1729     O1731   1.882       .  S
O1730     Ni1735   1.959       .  S
C1732      O1733   1.268       .  A
C1732      C1794   1.488       .  S
O1737     Ni1745   1.991   1_554  S
O1740     Ni1745   1.922       .  S
O1741      C2022   1.280       .  A
O1742     Ni1746   1.916   1_565  S
O1742      C1749   1.280       .  A
O1743     Ni1746   1.986       .  S
O1743      C1748   1.295   1_545  A
O1744     Ni2018   1.985   1_554  S
Ni1746     O2016   1.980       .  S
C1749      C1895   1.479       .  S
C1750      O2013   1.281       .  A
C1750      C1878   1.486       .  S
O1751     Ni1759   1.984       .  S
O1754     Ni1759   1.911       .  S
O1755      C1764   1.279       .  A
O1756     Ni1760   1.910   1_565  S
O1756      C1763   1.281       .  A
O1757     Ni1760   1.990       .  S
O1757      C1762   1.296   1_545  A
O1758     Ni1760   1.988       .  S
C1763      C1864   1.486       .  S
C1764      C1850   1.482       .  S
O1765      C1775   1.294   1_565  A
O1766     Ni1773   1.987       .  S
O1766      C1776   1.295       .  A
O1767     Ni1773   1.910       .  S
O1767      C1777   1.280       .  A
O1768      C2050   1.280       .  A
O1769     Ni1774   1.913   1_565  S
O1769      C1778   1.281       .  A
O1770      C1777   1.282       .  A
O1771     Ni2046   1.987       .  S
O1772     Ni1774   1.986       .  S
O1772      C1775   1.295       .  A
Ni1774     O2043   1.985       .  S
C1777      C1825   1.490       .  S
C1778      O2040   1.280       .  A
C1778      C1836   1.492       .  S
O1779      C1789   1.294       .  A
O1780     Ni1787   1.989       .  S
O1780      C1790   1.295       .  A
O1781     Ni1787   1.917       .  S
O1781      C1791   1.282       .  A
O1782      C1792   1.280       .  A
O1783     Ni1788   1.918   1_565  S
O1783      C1792   1.281       .  A
O1784      C1791   1.280       .  A
O1785     Ni1788   1.985       .  S
O1786     Ni1788   1.989       .  S
O1786      C1789   1.296   1_545  A
C1791      C1797   1.485       .  S
C1792      C1811   1.477       .  S
C1793      C1794   1.408       .  A
C1793      C1798   1.408       .  A
C1793      H1800   1.084       .  S
C1794      C1795   1.414       .  A
C1795      C1796   1.404       .  A
C1795      N1802   1.439       .  S
C1796      C1797   1.405       .  A
C1796      H1801   1.084       .  S
C1797      C1798   1.414       .  A
C1798      N1799   1.438       .  S
N1799      H1803   1.046       .  S
N1799      H1804   1.044       .  S
N1802      H1805   1.045       .  S
N1802      H1806   1.046       .  S
C1807      C1808   1.409       .  A
C1807      C1812   1.404       .  A
C1807      H1814   1.083       .  S
C1808      C1809   1.422       .  A
C1809      C1810   1.410       .  A
C1809      N1816   1.438       .  S
C1810      C1811   1.401       .  A
C1810      H1815   1.084       .  S
C1811      C1812   1.408       .  A
C1812      N1813   1.439       .  S
N1813      H1817   1.046       .  S
N1813      H1818   1.046       .  S
N1816      H1819   1.046       .  S
N1816      H1820   1.046       .  S
C1821      C2094   1.401       .  A
C1821      C1826   1.401       .  A
C1821      H1828   1.084       .  S
C1822      C2093   1.402       .  A
C1822      C1823   1.410       .  A
C1823      C1824   1.408       .  A
C1823      N1830   1.437   1_554  S
C1824      C1825   1.409       .  A
C1824      H1829   1.083       .  S
C1825      C2098   1.417       .  A
C1826      C2097   1.416       .  A
C1826      N1827   1.438       .  S
N1827      H1831   1.045       .  S
N1827      H1832   1.046       .  S
N1830      H1833   1.046       .  S
N1830      H1834   1.045   1_556  S
C1835      C2108   1.411       .  A
C1835      C1840   1.407       .  A
C1835      H1842   1.083       .  S
C1836      C2107   1.412       .  A
C1836      C1837   1.415       .  A
C1837      C1838   1.399       .  A
C1837      N1844   1.438       .  S
C1838      C1839   1.405       .  A
C1838      H1843   1.084       .  S
C1839      C2112   1.410       .  A
C1840      C2111   1.409       .  A
C1840      N1841   1.438       .  S
N1841      H1845   1.046       .  S
N1841      H1846   1.046   1_556  S
N1844      H1847   1.046       .  S
N1844      H1848   1.045       .  S
C1849      C1850   1.408       .  A
C1849      C1854   1.411       .  A
C1849      H1856   1.083       .  S
C1851      C1852   1.396       .  A
C1851      N1858   1.440       .  S
C1852      C1853   1.410       .  A
C1852      H1857   1.083       .  S
C1854      N1855   1.437       .  S
N1855      H1859   1.046       .  S
N1855      H1860   1.045       .  S
N1858      H1861   1.046       .  S
N1858      H1862   1.046       .  S
C1863      C1864   1.406       .  A
C1863      C1868   1.401       .  A
C1863      H1870   1.083       .  S
C1865      C1866   1.406       .  A
C1865      N1872   1.438       .  S
C1866      H1871   1.084       .  S
C1867      C1868   1.410       .  A
C1868      N1869   1.438       .  S
N1869      H1873   1.046       .  S
N1869      H1874   1.046       .  S
N1872      H1875   1.046       .  S
N1872      H1876   1.046       .  S
C1877      C2150   1.404       .  A
C1877      C1882   1.400       .  A
C1877      H1884   1.084       .  S
C1878      C2149   1.404   1_556  A
C1879      C1880   1.401       .  A
C1879      N1886   1.433       .  S
C1880      C1881   1.408       .  A
C1880      H1885   1.084       .  S
C1882      N1883   1.433       .  S
N1883      H1887   1.044       .  S
N1883      H1888   1.046       .  S
N1886      H1889   1.045       .  S
N1886      H1890   1.046       .  S
C1891      C1896   1.408       .  A
C1891      H2170   1.083       .  S
C1892      C1893   1.423       .  A
C1893      C1894   1.398       .  A
C1893      N1900   1.433       .  S
C1894      C1895   1.401       .  A
C1894      H1899   1.084       .  S
C1896      N2169   1.438       .  S
N1897      C2168   1.438       .  S
N1897      H2173   1.046       .  S
N1897      H2174   1.046       .  S
H1898      C2163   1.083       .  S
N1900      H1903   1.044       .  S
N1900      H1904   1.045       .  S
H1901      N2169   1.046       .  S
H1902      N2169   1.046       .  S
O1905     Ni1911   1.933       .  S
O1906     Ni1929   1.908   1_655  S
O1907      H1930   0.965       .  S
C1908      O1925   1.243       .  A
C1908      O1917   1.262       .  A
O1909     Ni1928   1.924       .  S
O1910     Ni1928   1.920       .  S
O1910      C1912   1.274       .  A
Ni1911     O1914   1.877       .  S
Ni1911     O1916   1.920       .  S
C1912      O1922   1.286       .  A
O1913     Ni1929   1.883       .  S
O1913      C1919   1.242       .  A
O1914      C1919   1.263   1_655  A
C1915      C2164   1.495       .  S
O1916      C1918   1.274       .  A
O1917     Ni1928   1.870       .  S
C1918      O1924   1.285       .  A
H1920      O1921   0.965       .  S
O1922     Ni1923   1.968       .  S
Ni1923     O1927   1.910       .  S
Ni1923     O1925   1.886       .  S
O1924     Ni1929   1.967   1_655  S
C1926      C2153   1.492       .  S
O1931     Ni1937   1.905       .  S
O1931      C1952   1.271       .  A
O1932     Ni1955   1.914       .  S
O1933      H1956   0.967       .  S
O1933     Ni1949   1.867       .  S
C1934      O1951   1.245       .  A
C1934      O1943   1.256       .  A
O1935     Ni1954   1.920       .  S
O1935      C1941   1.272       .  A
O1936     Ni1954   1.906       .  S
O1936      C1938   1.273       .  A
Ni1937     O1940   1.889       .  S
Ni1937     O1942   1.902       .  S
C1938      O1948   1.286       .  A
C1938      C1996   1.483       .  S
O1939     Ni1955   1.902       .  S
O1939      C1945   1.247       .  A
O1940      C1945   1.253       .  A
C1941      C2139   1.478       .  S
O1942      C1944   1.271       .  A
O1943     Ni1954   1.894       .  S
C1944      O1950   1.288       .  A
C1944      C1990   1.484       .  S
H1946      O1947   0.960   1_655  S
O1947     Ni1955   1.868   1_455  S
O1948     Ni1949   1.973       .  S
Ni1949     O1953   1.915       .  S
Ni1949     O1951   1.897       .  S
O1950     Ni1955   1.979       .  S
C1952      C2125   1.485       .  S
O1957     Ni1963   1.919       .  S
O1958     Ni1981   1.921       .  S
O1958      C1967   1.274   1_556  A
O1959      H1982   0.962       .  S
O1959     Ni1963   1.937       .  S
O1959     Ni1981   1.974       .  S
C1960      O1977   1.244       .  A
C1960      O1969   1.254       .  A
C1960      C1997   1.453       .  S
O1961     Ni1980   1.905       .  S
O1962     Ni1980   1.905       .  S
O1962      C1964   1.272       .  A
Ni1963     O1966   1.893       .  S
Ni1963     O1968   1.905       .  S
C1964      O1974   1.286       .  A
O1965     Ni1981   1.899       .  S
O1965      C1971   1.246       .  A
O1966      C1971   1.255       .  A
C1967      C2111   1.481   1_554  S
O1968      C1970   1.273   1_556  A
O1969     Ni1980   1.889       .  S
C1970      O1976   1.288   1_554  A
C1971      C1986   1.452       .  S
H1972      O1973   0.960       .  S
O1973     Ni1975   1.970       .  S
O1973     Ni1980   1.935       .  S
O1974     Ni1975   1.972       .  S
Ni1975     O1979   1.910       .  S
Ni1975     O1977   1.898       .  S
O1976     Ni1981   1.976       .  S
C1978      O1979   1.269       .  A
C1978      C2094   1.478       .  S
O1983     Ni1989   1.931       .  S
O1983      C2004   1.274       .  A
O1984     Ni2007   1.908       .  S
O1984      C1993   1.269       .  A
O1985      H2008   0.965       .  S
O1985     Ni1989   1.922       .  S
O1985     Ni2007   1.977       .  S
O1985     Ni2001   1.858       .  S
C1986      O2003   1.242       .  A
C1986      O1995   1.262       .  A
O1987     Ni2006   1.923       .  S
O1987      C1993   1.274       .  A
O1988     Ni2006   1.920       .  S
O1988      C1990   1.273       .  A
Ni1989     O1992   1.874       .  S
Ni1989     O1994   1.925       .  S
C1990      O2000   1.285       .  A
O1991     Ni2007   1.884       .  S
O1991      C1997   1.242       .  A
O1992      C1997   1.263       .  A
C1993      C2080   1.494       .  S
O1994      C1996   1.276       .  A
O1995     Ni2006   1.872       .  S
C1996      O2002   1.284       .  A
H1998      O1999   0.966       .  S
O1999     Ni2007   1.858       .  S
O1999     Ni2001   1.975       .  S
O1999     Ni2006   1.923       .  S
O2000     Ni2001   1.967       .  S
Ni2001     O2005   1.909       .  S
Ni2001     O2003   1.884       .  S
O2002     Ni2007   1.963       .  S
C2004      O2005   1.269       .  A
C2004      C2066   1.496       .  S
O2009     Ni2017   1.989       .  S
O2012     Ni2017   1.920       .  S
O2014     Ni2018   1.914   1_565  S
O2014      C2021   1.280       .  A
O2015     Ni2018   1.988       .  S
O2015      C2020   1.295   1_545  A
C2021      C2167   1.475       .  S
C2022      C2150   1.484       .  S
O2023     Ni2031   1.983       .  S
O2026     Ni2031   1.909       .  S
O2027      C2036   1.280       .  A
O2028     Ni2032   1.913   1_565  S
O2028      C2035   1.282       .  A
O2029     Ni2032   1.984       .  S
O2029      C2034   1.294       .  A
O2030     Ni2032   1.986       .  S
C2035      C2136   1.487       .  S
C2036      C2122   1.489       .  S
O2037      C2047   1.294   1_565  A
O2038     Ni2045   1.988       .  S
O2038      C2048   1.295       .  A
O2039     Ni2045   1.912       .  S
O2039      C2049   1.281       .  A
O2041     Ni2046   1.917   1_566  S
O2041      C2050   1.281       .  A
O2042      C2049   1.281       .  A
O2044     Ni2046   1.986   1_556  S
O2044      C2047   1.295       .  A
C2049      C2097   1.489       .  S
C2050      C2108   1.490       .  S
O2051      C2061   1.294       .  A
O2052     Ni2059   1.989       .  S
O2052      C2062   1.295       .  A
O2053     Ni2059   1.916       .  S
O2053      C2063   1.281       .  A
O2054      C2064   1.279       .  A
O2055     Ni2060   1.919   1_565  S
O2055      C2064   1.281       .  A
O2056      C2063   1.281       .  A
O2057     Ni2060   1.982       .  S
O2058     Ni2060   1.988       .  S
O2058      C2061   1.295   1_545  A
C2063      C2069   1.481       .  S
C2064      C2083   1.474       .  S
C2065      C2066   1.411       .  A
C2065      C2070   1.410       .  A
C2065      H2072   1.083       .  S
C2066      C2067   1.418       .  A
C2067      C2068   1.406       .  A
C2067      N2074   1.438       .  S
C2068      C2069   1.402       .  A
C2068      H2073   1.084       .  S
C2069      C2070   1.411       .  A
C2070      N2071   1.439       .  S
N2071      H2075   1.046       .  S
N2071      H2076   1.043       .  S
N2074      H2077   1.046       .  S
N2074      H2078   1.046       .  S
C2079      C2080   1.410       .  A
C2079      C2084   1.403       .  A
C2079      H2086   1.083       .  S
C2080      C2081   1.421       .  A
C2081      C2082   1.408       .  A
C2081      N2088   1.438       .  S
C2082      C2083   1.401       .  A
C2082      H2087   1.084       .  S
C2083      C2084   1.407       .  A
C2084      N2085   1.439       .  S
N2085      H2089   1.046       .  S
N2085      H2090   1.046       .  S
N2088      H2091   1.046       .  S
N2088      H2092   1.046       .  S
C2093      C2098   1.402       .  A
C2093      H2100   1.084       .  S
C2094      C2095   1.410       .  A
C2095      C2096   1.408       .  A
C2095      N2102   1.437       .  S
C2096      C2097   1.409       .  A
C2096      H2101   1.082       .  S
C2098      N2099   1.438       .  S
N2099      H2103   1.045       .  S
N2099      H2104   1.046       .  S
N2102      H2105   1.046       .  S
N2102      H2106   1.044       .  S
C2107      C2112   1.411       .  A
C2107      H2114   1.083       .  S
C2108      C2109   1.415       .  A
C2109      C2110   1.401       .  A
C2109      N2116   1.438       .  S
C2110      C2111   1.405       .  A
C2110      H2115   1.084       .  S
C2112      N2113   1.437       .  S
N2113      H2117   1.046       .  S
N2113      H2118   1.045       .  S
N2116      H2119   1.046       .  S
N2116      H2120   1.045       .  S
C2121      C2122   1.411       .  A
C2121      C2126   1.412       .  A
C2121      H2128   1.083       .  S
C2123      C2124   1.395       .  A
C2123      N2130   1.439       .  S
C2124      C2125   1.404       .  A
C2124      H2129   1.084       .  S
C2126      N2127   1.438       .  S
N2127      H2131   1.046       .  S
N2127      H2132   1.046       .  S
N2130      H2133   1.046       .  S
N2130      H2134   1.046       .  S
C2135      C2136   1.405       .  A
C2135      C2140   1.400       .  A
C2135      H2142   1.083       .  S
C2137      C2138   1.408       .  A
C2137      N2144   1.438       .  S
C2138      H2143   1.084       .  S
C2139      C2140   1.411       .  A
C2140      N2141   1.438       .  S
N2141      H2145   1.046       .  S
N2141      H2146   1.045       .  S
N2144      H2147   1.046       .  S
N2144      H2148   1.046       .  S
C2149      C2154   1.402       .  A
C2149      H2156   1.083       .  S
C2151      C2152   1.400       .  A
C2151      N2158   1.433       .  S
C2152      C2153   1.407       .  A
C2152      H2157   1.083       .  S
C2154      N2155   1.433       .  S
N2155      H2159   1.045       .  S
N2155      H2160   1.046       .  S
N2158      H2161   1.044       .  S
N2158      H2162   1.046       .  S
C2163      C2168   1.408       .  A
C2164      C2165   1.423       .  A
C2165      C2166   1.397       .  A
C2165      N2172   1.433       .  S
C2166      C2167   1.400   1_554  A
C2166      H2171   1.084       .  S
N2172      H2175   1.044       .  S
N2172      H2176   1.045       .  S
