geometry optimzed in LAMMPS
_audit_creation_date              2020-11-30 
_audit_creation_method            'lammps2cif' 
_symmetry_space_group_name_H-M    'P1' 
_symmetry_Int_Tables_number       1 
_symmetry_cell_setting            triclinic 
loop_ 
_symmetry_equiv_pos_as_xyz 
  x,y,z 
_cell_length_a                    32.90715235843163 
_cell_length_b                    32.72747419741655 
_cell_length_c                    22.916002737654303 
_cell_angle_alpha                 90.65133654634914 
_cell_angle_beta                  90.38630102424632 
_cell_angle_gamma                 88.95081489441344 
loop_ 
_atom_site_label 
_atom_site_type_symbol 
_atom_site_fract_x 
_atom_site_fract_y 
_atom_site_fract_z 
_atom_site_charge 
C1          C  0.32945899  0.32859868  0.34595976    -0.01510
C2          C  0.33298155  0.34932681  0.59756352    -0.01510
C3          C  0.31646273  0.14692032  0.36562760    -0.01510
C4          C  0.34312107  0.16487901  0.60610965    -0.01510
C5          C  0.13223119  0.15939426  0.36317532    -0.01510
C6          C  0.16094366  0.15303854  0.61959695    -0.01510
C7          C  0.14581265  0.33825230  0.34431292    -0.01510
C8          C  0.15130638  0.33572667  0.60584648    -0.01510
C9          C  0.84318252  0.65912133  0.36800967    -0.01510
C10         C  0.81984069  0.65537230  0.60785814    -0.01510
C11         C  0.65866411  0.65352067  0.35024623    -0.01510
C12         C  0.63666674  0.66851754  0.59728847    -0.01510
C13         C  0.63926370  0.83774744  0.36176185    -0.01510
C14         C  0.65608715  0.84870388  0.61454734    -0.01510
C15         C  0.81961347  0.84336771  0.35332860    -0.01510
C16         C  0.83913632  0.83707037  0.60454096    -0.01510
O17         O  0.86539915  0.43635731  0.87538420    -0.56840
C18         C  0.83532143  0.54944419  0.81300688     0.75790
O19         O  0.78963373  0.50243748  0.99906052    -0.58000
C20         C  0.89028409  0.43028351  0.91693276     0.75760
C21         C  0.89335162  0.56192076  0.97074168     0.78150
Cd22       Cd  0.83989721  0.50314868  0.91826783     1.37470
O23         O  0.84956085  0.51311949  0.81146127    -0.56840
O24         O  0.88661043  0.56063785  0.91663221    -0.55650
C25         C  0.75888914  0.49499283  0.96773596     0.78110
O26         O  0.87473701  0.53659952  0.00170283    -0.58020
O27         O  0.82085164  0.56176948  0.86133518    -0.56470
O28         O  0.88894684  0.45544683  0.95894982    -0.56460
O29         O  0.76538411  0.48959094  0.91384131    -0.55630
O30         O  0.04820735  0.62202999  0.08092525    -0.56840
C31         C  0.93838816  0.64599637  0.15702265     0.75790
O32         O  0.97590850  0.69577429  0.96428683    -0.58000
C33         C  0.05293812  0.59669261  0.03930853     0.75760
C34         C  0.92198591  0.59088348  0.99574734     0.78150
Cd35       Cd  0.97929563  0.64619531  0.04597314     1.37460
O36         O  0.97685306  0.64384084  0.15413463    -0.56840
O37         O  0.93553323  0.58676679  0.04697732    -0.55650
C38         C  0.98376064  0.72740426  0.99395157     0.78110
O39         O  0.93490799  0.62073855  0.96694554    -0.58020
O40         O  0.91968615  0.65293823  0.10960349    -0.56470
O41         O  0.02646576  0.59774378  0.99929648    -0.56460
O42         O  0.99039947  0.72201423  0.04783196    -0.55630
O43         O  0.84920527  0.98458839  0.15638297    -0.56840
C44         C  0.88775023  0.06638675  0.04456296     0.75790
O45         O  0.86730033  0.95393015  0.96304560    -0.58000
C46         C  0.84369321  0.94629083  0.15329195     0.75760
C47         C  0.75605360  0.99983208  0.00538575     0.78150
Cd48       Cd  0.84007684  0.99328172  0.04824669     1.37460
O49         O  0.86538315  0.06019133  0.08824616    -0.56840
O50         O  0.76426692  0.99913596  0.05935640    -0.55650
C51         C  0.89338402  0.93407817  0.99282581     0.78110
O52         O  0.78616263  0.99926241  0.97151156    -0.58020
O53         O  0.88500312  0.04131442  0.00261566    -0.56470
O54         O  0.83358083  0.93227679  0.10364135    -0.56460
O55         O  0.89450722  0.94153299  0.04682136    -0.55630
O56         O  0.98352796  0.84398542  0.80696633    -0.56840
C57         C  0.05412442  0.89888701  0.92074550     0.75790
O58         O  0.94256433  0.87984613  0.99743907    -0.58000
C59         C  0.94584019  0.85191573  0.80070182     0.75760
C60         C  0.98425804  0.76823282  0.96718854     0.78150
Cd61       Cd  0.98169155  0.85005700  0.91545985     1.37470
O62         O  0.04965679  0.87340309  0.87939770    -0.56840
O63         O  0.97854278  0.77337505  0.91314983    -0.55650
C64         C  0.92182015  0.90453080  0.96664865     0.78110
O65         O  0.98968730  0.80024915  0.99710743    -0.58020
O66         O  0.02760540  0.89890679  0.96009866    -0.56470
O67         O  0.92545155  0.85577818  0.84714949    -0.56460
O68         O  0.92764166  0.90315542  0.91235726    -0.55630
O69         O  0.42508688  0.61765912  0.87102353    -0.56840
C70         C  0.53887242  0.64295440  0.80236553     0.75790
O71         O  0.48700903  0.69096549  0.99399884    -0.58000
C72         C  0.41918728  0.59474518  0.91426020     0.75760
C73         C  0.55091553  0.58671329  0.95942901     0.78150
Cd74       Cd  0.49240576  0.64215824  0.90935589     1.37470
O75         O  0.50037341  0.64132553  0.79959333    -0.56840
O76         O  0.52923845  0.57667239  0.91610331    -0.55650
C77         C  0.48488315  0.72347503  0.96485662     0.78110
O78         O  0.54496114  0.62215630  0.98088730    -0.58020
O79         O  0.55381044  0.64635152  0.85300864    -0.56470
O80         O  0.44436676  0.59723384  0.95588319    -0.56460
O81         O  0.48420910  0.71890968  0.90987799    -0.55630
O82         O  0.60990419  0.43759020  0.08619880    -0.56840
C83         C  0.62945001  0.54703319  0.14784339     0.75790
O84         O  0.68641424  0.49748116  0.96041176    -0.58000
C85         C  0.58729779  0.42957495  0.04271729     0.75760
C86         C  0.58099791  0.55838148  0.98412067     0.78150
Cd87       Cd  0.63550923  0.50126520  0.04059028     1.37460
O88         O  0.62572297  0.50851607  0.15030640    -0.56840
O89         O  0.60235266  0.56841105  0.02763037    -0.55650
C90         C  0.71764492  0.49454982  0.99236317     0.78110
O91         O  0.58646656  0.52259723  0.96385065    -0.58020
O92         O  0.63637439  0.56141174  0.09797377    -0.56470
O93         O  0.59016607  0.45223875  0.99886834    -0.56460
O94         O  0.71139267  0.49285555  0.04661295    -0.55630
O95         O  0.49744764  0.84705021  0.15880853    -0.56840
C96         C  0.41875237  0.89491376  0.04492206     0.75790
O97         O  0.54441718  0.86739281  0.98051498    -0.58000
C98         C  0.53595946  0.84401376  0.15904663     0.75760
C99         C  0.48497855  0.76430591  0.99351663     0.78150
Cd100      Cd  0.49211862  0.84508324  0.04987533     1.37470
O101        O  0.42536719  0.87167204  0.08792229    -0.56840
O102        O  0.48325174  0.76885179  0.04843778    -0.55650
C103        C  0.55002235  0.90150820  0.00576547     0.78110
O104        O  0.48833421  0.79670968  0.96460810    -0.58020
O105        O  0.44304042  0.89136691  0.00265876    -0.56470
O106        O  0.55237427  0.83613478  0.11038493    -0.56460
O107        O  0.52869579  0.90948582  0.05010597    -0.55630
O108        O  0.60376647  0.05465911  0.88952626    -0.56840
C109        C  0.63328784  0.95236281  0.82341129     0.75790
O110        O  0.68434330  0.99001129  0.01451780    -0.58000
C111        C  0.58291201  0.06498488  0.93367617     0.75760
C112        C  0.57906451  0.93093751  0.98423331     0.78150
Cd113      Cd  0.63139541  0.99134507  0.93540612     1.37470
O114        O  0.61341289  0.98573357  0.82885619    -0.56840
O115        O  0.59875909  0.92421775  0.93810985    -0.55650
C116        C  0.71391105  0.99949820  0.98286023     0.78110
O117        O  0.58506149  0.96466511  0.01007494    -0.58020
O118        O  0.65094996  0.93879440  0.86867655    -0.56470
O119        O  0.58774165  0.04378274  0.97897804    -0.56460
O120        O  0.70546206  0.00709002  0.93016879    -0.55630
O121        O  0.54929436  0.37629149  0.08696837    -0.56840
C122        C  0.43869773  0.35494314  0.15021415     0.75790
O123        O  0.44259968  0.37611727  0.95994748    -0.58000
C124        C  0.55604646  0.39850528  0.04331230     0.75760
C125        C  0.48653534  0.26719862  0.00059810     0.78150
Cd126      Cd  0.48374514  0.35144855  0.04466987     1.37460
O127        O  0.47723334  0.35478192  0.15469427    -0.56840
O128        O  0.47728974  0.27569822  0.05279992    -0.55650
C129        C  0.42506133  0.40458510  0.98868380     0.78110
O130        O  0.49677867  0.29690698  0.96961400    -0.58020
O131        O  0.42413577  0.35230501  0.09913356    -0.56470
O132        O  0.53204555  0.39539774  0.00044018    -0.56460
O133        O  0.43513382  0.40852795  0.04154259    -0.55630
O134        O  0.34145050  0.49077351  0.80301877    -0.56840
C135        C  0.38768198  0.56348168  0.91494073     0.75790
O136        O  0.28928539  0.49188509  0.99524894    -0.58000
C137        C  0.34146287  0.45210650  0.79771682     0.75760
C138        C  0.39482800  0.43223914  0.96275351     0.78150
Cd139      Cd  0.33866602  0.49051451  0.91176301     1.37460
O140        O  0.36229892  0.55832112  0.87392145    -0.56840
O141        O  0.38897036  0.43343517  0.90839829    -0.55650
C142        C  0.25702981  0.49435832  0.96543396     0.78110
O143        O  0.37374235  0.45667546  0.99380097    -0.58020
O144        O  0.38717974  0.53777982  0.95543412    -0.56470
O145        O  0.33686951  0.43213751  0.84422150    -0.56460
O146        O  0.26179654  0.49592476  0.91076762    -0.55630
O147        O  0.54054067  0.11413027  0.88473675    -0.56840
C148        C  0.44355194  0.13910745  0.81042254     0.75790
O149        O  0.45400596  0.09391371  0.99720648    -0.58000
C150        C  0.55118996  0.09679096  0.93162096     0.75760
C151        C  0.48417678  0.22532433  0.97659849     0.78150
Cd152      Cd  0.47653180  0.14332333  0.92687897     1.37460
O153        O  0.45234355  0.10695344  0.83811825    -0.56840
O154        O  0.49967478  0.21545637  0.92798707    -0.55650
C155        C  0.41739490  0.09318514  0.98038894     0.78110
O156        O  0.46548866  0.19755197  0.00268863    -0.58020
O157        O  0.45053952  0.17272408  0.83624826    -0.56470
O158        O  0.53026791  0.10500606  0.97627773    -0.56460
O159        O  0.40651312  0.11881392  0.94215751    -0.55630
O160        O  0.33728630  0.00262012  0.16085569    -0.56840
C161        C  0.38745137  0.92755580  0.04561749     0.75790
O162        O  0.28935944  0.98727375  0.97183616    -0.58000
C163        C  0.33906048  0.04125190  0.16509390     0.75760
C164        C  0.38987298  0.06284455  0.00328900     0.78150
Cd165      Cd  0.33887174  0.00204946  0.05215644     1.37470
O166        O  0.36508830  0.93484684  0.08943088    -0.56840
O167        O  0.40236929  0.03741206  0.04062638    -0.55650
C168        C  0.25771860  0.99476499  0.00131543     0.78110
O169        O  0.35335464  0.05982245  0.98616052    -0.58020
O170        O  0.38430487  0.95227037  0.00378684    -0.56470
O171        O  0.33866972  0.06067917  0.11778755    -0.56460
O172        O  0.26322655  0.00381248  0.05454445    -0.55630
O173        O  0.92516753  0.12233329  0.08581206    -0.56840
C174        C  0.03439781  0.14675358  0.15495375     0.75790
O175        O  0.03974295  0.12237433  0.96846952    -0.58000
C176        C  0.91864975  0.09810046  0.04343770     0.75760
C177        C  0.98617808  0.22732631  0.99172615     0.78150
Cd178      Cd  0.99130392  0.14592717  0.04507656     1.37460
O179        O  0.99579311  0.14791543  0.15521438    -0.56840
O180        O  0.99324827  0.22254834  0.04560191    -0.55650
C181        C  0.05029326  0.08998502  0.99475048     0.78110
O182        O  0.97920148  0.19511315  0.96277130    -0.58020
O183        O  0.05084260  0.14782029  0.10534181    -0.56470
O184        O  0.94268588  0.09978565  0.00088982    -0.56460
O185        O  0.03329858  0.08345230  0.04280971    -0.55630
O186        O  0.12631161  0.00324362  0.81266404    -0.56840
C187        C  0.08584526  0.92975010  0.92194307     0.75790
O188        O  0.18623489  0.00865781  0.00187813    -0.58000
C189        C  0.13683128  0.04026732  0.81003917     0.75760
C190        C  0.08032393  0.06096618  0.97088771     0.78150
Cd191      Cd  0.13590861  0.00110419  0.92119699     1.37460
O192        O  0.11073985  0.93441397  0.88075500    -0.56840
O193        O  0.09483719  0.06512557  0.92056848    -0.55650
C194        C  0.21678373  0.99469935  0.97476447     0.78110
O195        O  0.09257842  0.03016077  0.99936930    -0.58020
O196        O  0.08716356  0.95541501  0.96334149    -0.56470
O197        O  0.14910062  0.05672581  0.85706352    -0.56460
O198        O  0.21028962  0.98210097  0.92323721    -0.55630
O199        O  0.11100667  0.56071379  0.07930462    -0.56840
C200        C  0.13100446  0.45270149  0.15797757     0.75790
O201        O  0.10638721  0.45118708  0.96184253    -0.58000
C202        C  0.08461225  0.56451929  0.03920911     0.75760
C203        C  0.21630494  0.49444630  0.99279498     0.78150
Cd204      Cd  0.13452547  0.49082517  0.04492104     1.37460
O205        O  0.12683472  0.49120563  0.15402104    -0.56840
O206        O  0.21133138  0.49578433  0.04754870    -0.55650
C207        C  0.08208142  0.43092167  0.99222331     0.78110
O208        O  0.18422771  0.49237888  0.96259681    -0.58020
O209        O  0.14028394  0.43352251  0.11144681    -0.56470
O210        O  0.08427904  0.53679170  0.00059617    -0.56460
O211        O  0.08263569  0.43756824  0.04647623    -0.55630
O212        O  0.92704177  0.37338742  0.87376213    -0.56840
C213        C  0.03962922  0.34927107  0.80295008     0.75790
O214        O  0.03139167  0.37967740  0.99615000    -0.58000
C215        C  0.92212673  0.39844442  0.91576728     0.75760
C216        C  0.98761675  0.26799537  0.96412813     0.78150
Cd217      Cd  0.99523221  0.34896631  0.91129233     1.37470
O218        O  0.00600096  0.36855705  0.80680786    -0.56840
O219        O  0.97679671  0.27418119  0.91169467    -0.55650
C220        C  0.05377619  0.40208318  0.96584078     0.78110
O221        O  0.00107391  0.29860099  0.99158219    -0.58020
O222        O  0.04868421  0.32604587  0.84520480    -0.56470
O223        O  0.94835413  0.39726641  0.95608031    -0.56460
O224        O  0.04980388  0.39920773  0.91129567    -0.55630
C225        C  0.91230764  0.83689064  0.64298924    -0.11290
C226        C  0.87322791  0.85576003  0.64380964     0.05710
C227        C  0.86530034  0.88305758  0.69118100    -0.06580
C228        C  0.89014629  0.88180828  0.74105097    -0.07330
C229        C  0.92547813  0.85723697  0.74323074    -0.01880
C230        C  0.93853080  0.83749181  0.69155313     0.04940
N231        N  0.97679741  0.81591058  0.68837448     0.67450
H232        H  0.92134362  0.81871366  0.60588169     0.16340
H233        H  0.88196419  0.90076922  0.77840528     0.16060
N234        N  0.83503312  0.91483588  0.68769747     0.75150
O235        O  0.97866677  0.78077567  0.66511663    -0.38300
O236        O  0.00930505  0.83492370  0.69743613    -0.38240
O237        O  0.81062782  0.92057345  0.72939008    -0.38950
O238        O  0.83989411  0.94317701  0.65164609    -0.39010
C239        C  0.86717965  0.86632904  0.44148068    -0.11290
C240        C  0.82794579  0.86285701  0.41535784     0.05710
C241        C  0.79638794  0.86059608  0.45572320    -0.06580
C242        C  0.80441793  0.83963048  0.50619873    -0.07330
C243        C  0.83994552  0.84876765  0.53800360    -0.01880
C244        C  0.87208435  0.86520078  0.50370779     0.04940
N245        N  0.90980872  0.87767836  0.52873246     0.67450
H246        H  0.89375824  0.86961678  0.41482838     0.16340
H247        H  0.77879588  0.82561170  0.52632522     0.16060
N248        N  0.76743011  0.89327028  0.46072504     0.75150
O249        O  0.94275491  0.86365419  0.50808713    -0.38300
O250        O  0.91048191  0.90945724  0.56041291    -0.38240
O251        O  0.73142714  0.88506800  0.47339893    -0.38950
O252        O  0.77984743  0.92896520  0.47054411    -0.39010
C253        C  0.85960171  0.90210638  0.30613350    -0.11290
C254        C  0.83892776  0.86467805  0.30000826     0.05710
C255        C  0.82941879  0.85181435  0.24169787    -0.06580
C256        C  0.83351860  0.87867864  0.19559348    -0.07330
C257        C  0.84780265  0.91820111  0.20370609    -0.01880
C258        C  0.86430513  0.92887278  0.25878386     0.04940
N259        N  0.88584357  0.96626996  0.26758533     0.67450
H260        H  0.86942848  0.91276906  0.34842679     0.16340
H261        H  0.82335243  0.86862208  0.15278145     0.16060
N262        N  0.81194698  0.81317982  0.22755671     0.75150
O263        O  0.88372495  0.98505068  0.31593332    -0.38300
O264        O  0.91229225  0.97667109  0.23124389    -0.38240
O265        O  0.77813370  0.81317668  0.20125327    -0.38950
O266        O  0.83545101  0.78285700  0.21956671    -0.39010
C267        C  0.72981727  0.81786843  0.62391845    -0.11290
C268        C  0.70556282  0.85158860  0.60770995     0.05710
C269        C  0.73000209  0.88829274  0.60256827    -0.06580
C270        C  0.77349682  0.88542739  0.60474857    -0.07330
C271        C  0.79461054  0.85033042  0.62596429    -0.01880
C272        C  0.76883281  0.82184593  0.64941850     0.04940
N273        N  0.77602251  0.80859309  0.70834761     0.67450
H274        H  0.71822572  0.78859992  0.61920488     0.16340
H275        H  0.79075882  0.91033758  0.58785176     0.16060
N276        N  0.71354764  0.92890687  0.59808398     0.75150
O277        O  0.75406263  0.78194966  0.73059828    -0.38300
O278        O  0.79920158  0.82865218  0.74166620    -0.38240
O279        O  0.69883533  0.94596758  0.64296540    -0.38950
O280        O  0.72745896  0.95179797  0.55931720    -0.39010
C281        C  0.67677478  0.88098501  0.71203135    -0.11290
C282        C  0.64611245  0.87697555  0.66827905     0.05710
C283        C  0.60784888  0.89598291  0.68126109    -0.06580
C284        C  0.60426954  0.92255711  0.73039738    -0.07330
C285        C  0.63760779  0.92978362  0.76774186    -0.01880
C286        C  0.67445318  0.90917134  0.75725400     0.04940
N287        N  0.71051778  0.91745000  0.79109432     0.67450
H288        H  0.70443487  0.86300787  0.71109365     0.16340
H289        H  0.57490127  0.93615096  0.74081380     0.16060
N290        N  0.57148623  0.88533416  0.65048243     0.75150
O291        O  0.73535090  0.88892139  0.80342325    -0.38300
O292        O  0.72035116  0.95392209  0.80172117    -0.38240
O293        O  0.54416439  0.86703683  0.67775836    -0.38950
O294        O  0.56171204  0.90399483  0.60450009    -0.39010
C295        C  0.64771710  0.88646581  0.45328260    -0.11290
C296        C  0.62849057  0.85266757  0.42652359     0.05710
C297        C  0.59955167  0.83393871  0.46424557    -0.06580
C298        C  0.60396168  0.83936830  0.52526519    -0.07330
C299        C  0.63534653  0.86172617  0.55245549    -0.01880
C300        C  0.64766695  0.89367085  0.51495284     0.04940
N301        N  0.64589883  0.93578070  0.53422514     0.67450
H302        H  0.65839802  0.91036429  0.42634497     0.16340
H303        H  0.57826017  0.83137561  0.54991660     0.16060
N304        N  0.56262151  0.81437720  0.44437189     0.75150
O305        O  0.65552614  0.96395715  0.49998607    -0.38300
O306        O  0.62823274  0.94569484  0.58104224    -0.38240
O307        O  0.56137150  0.79180019  0.39967193    -0.38950
O308        O  0.53070677  0.81778425  0.47454820    -0.39010
C309        C  0.54317183  0.85145401  0.26783708    -0.11290
C310        C  0.56097626  0.85089907  0.21242750     0.05710
C311        C  0.60184985  0.86264604  0.20845297    -0.06580
C312        C  0.62534796  0.86692297  0.25908494    -0.07330
C313        C  0.61000381  0.85764673  0.31467740    -0.01880
C314        C  0.56672530  0.85863634  0.31862102     0.04940
N315        N  0.54648865  0.87658975  0.36833724     0.67450
H316        H  0.51047652  0.84925079  0.27118230     0.16340
H317        H  0.65629597  0.87612802  0.25354659     0.16060
N318        N  0.61977934  0.87177894  0.15353034     0.75150
O319        O  0.56246366  0.90619610  0.39515236    -0.38300
O320        O  0.50934568  0.86975787  0.37685875    -0.38240
O321        O  0.62339787  0.90853565  0.13867260    -0.38950
O322        O  0.63729077  0.84381302  0.12423826    -0.39010
C323        C  0.70537096  0.88336418  0.34560656    -0.11290
C324        C  0.68536362  0.84554325  0.34406455     0.05710
C325        C  0.70842516  0.81507138  0.31427069    -0.06580
C326        C  0.75022676  0.81308691  0.32266203    -0.07330
C327        C  0.77212687  0.84752227  0.34034173    -0.01880
C328        C  0.74846499  0.88508127  0.34017488     0.04940
N329        N  0.76585423  0.92416919  0.32900173     0.67450
H330        H  0.68792829  0.91159514  0.34654217     0.16340
H331        H  0.76592595  0.78605336  0.30782274     0.16060
N332        N  0.69312063  0.79819430  0.26090782     0.75150
O333        O  0.74880134  0.94761752  0.29256151    -0.38300
O334        O  0.79381590  0.93813435  0.36074882    -0.38240
O335        O  0.69485502  0.81907878  0.21512393    -0.38950
O336        O  0.69067073  0.76024387  0.25540402    -0.39010
C337        C  0.66408335  0.73417355  0.65152654    -0.11290
C338        C  0.63295219  0.71658424  0.61552896     0.05710
C339        C  0.59744329  0.74298966  0.61515284    -0.06580
C340        C  0.60248123  0.78606358  0.62248766    -0.07330
C341        C  0.64105134  0.80310748  0.63325248    -0.01880
C342        C  0.66164987  0.77544013  0.67078010     0.04940
N343        N  0.66642381  0.78403697  0.73224842     0.67450
H344        H  0.68784614  0.71545555  0.67062759     0.16340
H345        H  0.57566891  0.80485681  0.62887620     0.16060
N346        N  0.55711229  0.72817107  0.62218005     0.75150
O347        O  0.64356199  0.81055678  0.75619368    -0.38300
O348        O  0.68303237  0.75750728  0.76464648    -0.38240
O349        O  0.54854335  0.71333056  0.67092300    -0.38950
O350        O  0.52851357  0.74539598  0.59423441    -0.39010
C351        C  0.63028801  0.65292193  0.70387934    -0.11290
C352        C  0.61428742  0.64648494  0.64735949     0.05710
C353        C  0.57396315  0.63117288  0.64396667    -0.06580
C354        C  0.55037543  0.62853670  0.69527158    -0.07330
C355        C  0.56556024  0.64117923  0.75001044    -0.01880
C356        C  0.60685834  0.65160941  0.75407295     0.04940
N357        N  0.62515406  0.66453607  0.80796311     0.67450
H358        H  0.66101466  0.66280671  0.70943160     0.16340
H359        H  0.51930380  0.61835027  0.69173268     0.16060
N360        N  0.55530647  0.62016185  0.58961437     0.75150
O361        O  0.65713263  0.64671573  0.82588496    -0.38300
O362        O  0.61496638  0.69868166  0.83008643    -0.38240
O363        O  0.56730352  0.58805690  0.56350380    -0.38950
O364        O  0.52086385  0.63522040  0.57669691    -0.39010
C365        C  0.60336308  0.66312798  0.43052599    -0.11290
C366        C  0.63699094  0.63946927  0.40942620     0.05710
C367        C  0.65180477  0.61111008  0.45116113    -0.06580
C368        C  0.64237129  0.61739749  0.51076133    -0.07330
C369        C  0.62411243  0.65407332  0.53277046    -0.01880
C370        C  0.60061161  0.67483387  0.48987615     0.04940
N371        N  0.57335325  0.70744595  0.50308173     0.67450
H372        H  0.58410597  0.67967218  0.40018660     0.16340
H373        H  0.65192481  0.59438605  0.54085528     0.16060
N374        N  0.66786909  0.57183015  0.43484779     0.75150
O375        O  0.58610564  0.74305113  0.49610392    -0.38300
O376        O  0.53586398  0.70133566  0.49601929    -0.38240
O377        O  0.69346709  0.55449680  0.46803920    -0.38950
O378        O  0.64789411  0.54988774  0.39976534    -0.39010
C379        C  0.61584873  0.59694142  0.29962180    -0.11290
C380        C  0.64293610  0.63011763  0.29500070     0.05710
C381        C  0.65831066  0.63752531  0.23791774    -0.06580
C382        C  0.65078180  0.61068993  0.19221405    -0.07330
C383        C  0.62888433  0.57524667  0.19902032    -0.01880
C384        C  0.60917629  0.56902322  0.25276711     0.04940
N385        N  0.58203159  0.53558427  0.26041878     0.67450
H386        H  0.60004428  0.59199582  0.33996631     0.16340
H387        H  0.66487451  0.61709375  0.15071271     0.16060
N388        N  0.68363236  0.67065302  0.22342483     0.75150
O389        O  0.57714467  0.52063929  0.31038378    -0.38300
O390        O  0.55916191  0.52426338  0.21908123    -0.38240
O391        O  0.72015303  0.66172194  0.21153051    -0.38950
O392        O  0.66709355  0.69934267  0.19513319    -0.39010
C393        C  0.61709355  0.76668608  0.31670631    -0.11290
C394        C  0.63718739  0.78943276  0.36132101     0.05710
C395        C  0.65915598  0.76613084  0.40352125    -0.06580
C396        C  0.66307738  0.72379667  0.39740454    -0.07330
C397        C  0.64760273  0.70126918  0.34954230    -0.01880
C398        C  0.62055009  0.72333070  0.31162266     0.04940
N399        N  0.59375084  0.70309765  0.27139204     0.67450
H400        H  0.59835251  0.78243582  0.28505400     0.16340
H401        H  0.67877429  0.70729060  0.43162112     0.16060
N402        N  0.67800859  0.78461777  0.45365457     0.75150
O403        O  0.56946147  0.67701357  0.29022442    -0.38300
O404        O  0.58668093  0.71858198  0.22205273    -0.38240
O405        O  0.66792460  0.77374773  0.50403021    -0.38950
O406        O  0.70930191  0.80577791  0.44807096    -0.39010
C407        C  0.74833513  0.62052625  0.61361841    -0.11290
C408        C  0.77181125  0.65441860  0.59599913     0.05710
C409        C  0.74850362  0.68726301  0.57239587    -0.06580
C410        C  0.70709898  0.68376433  0.56222864    -0.07330
C411        C  0.68384803  0.65774909  0.59600265    -0.01880
C412        C  0.70542114  0.62283752  0.61846744     0.04940
N413        N  0.68561077  0.58858989  0.64365028     0.67450
H414        H  0.76319700  0.59358118  0.63095183     0.16340
H415        H  0.69178928  0.70832621  0.53960230     0.16060
N416        N  0.76086850  0.72778936  0.58031519     0.75150
O417        O  0.68423866  0.55572367  0.61440227    -0.38300
O418        O  0.68482176  0.58600463  0.69850643    -0.38240
O419        O  0.75513939  0.75393169  0.54103233    -0.38950
O420        O  0.76593931  0.73933529  0.63215960    -0.39010
C421        C  0.85886815  0.60077795  0.66820009    -0.11290
C422        C  0.82794773  0.63147289  0.66570122     0.05710
C423        C  0.80258706  0.63619459  0.71624348    -0.06580
C424        C  0.80636297  0.60881079  0.76217871    -0.07330
C425        C  0.83517888  0.57709366  0.76221206    -0.01880
C426        C  0.86314839  0.57411089  0.71579255     0.04940
N427        N  0.89704475  0.54577444  0.71715777     0.67450
H428        H  0.88062530  0.59751002  0.63330076     0.16340
H429        H  0.78555259  0.61223490  0.79846720     0.16060
N430        N  0.77028850  0.66609945  0.72089626     0.75150
O431        O  0.91011999  0.52986710  0.67030123    -0.38300
O432        O  0.91818928  0.54216608  0.76304987    -0.38240
O433        O  0.73540444  0.65438124  0.73491989    -0.38950
O434        O  0.77895523  0.70261576  0.73191124    -0.39010
C435        C  0.84073522  0.72370910  0.56003866    -0.11290
C436        C  0.83684259  0.70112704  0.61228325     0.05710
C437        C  0.84864859  0.72368402  0.66373205    -0.06580
C438        C  0.84861200  0.76733141  0.66196035    -0.07330
C439        C  0.84525541  0.78878868  0.60853448    -0.01880
C440        C  0.85265695  0.76413435  0.55908718     0.04940
N441        N  0.88583715  0.77305484  0.52155164     0.67450
H442        H  0.83584663  0.71005640  0.51833870     0.16340
H443        H  0.85393016  0.78432487  0.70184747     0.16060
N444        N  0.86372474  0.70420014  0.71555825     0.75150
O445        O  0.92134954  0.76307579  0.53773204    -0.38300
O446        O  0.87946841  0.77846415  0.46809321    -0.38240
O447        O  0.89296373  0.67888443  0.71135148    -0.38950
O448        O  0.85627182  0.72002402  0.76495728    -0.39010
C449        C  0.87007629  0.73204177  0.33770157    -0.11290
C450        C  0.84409169  0.70791828  0.37261081     0.05710
C451        C  0.81405981  0.73077033  0.40528818    -0.06580
C452        C  0.81017822  0.77325043  0.39877895    -0.07330
C453        C  0.83333343  0.79670992  0.36067282    -0.01880
C454        C  0.86676661  0.77548271  0.33410490     0.04940
N455        N  0.89860340  0.79678306  0.30523946     0.67450
H456        H  0.89396681  0.71734963  0.31295144     0.16340
H457        H  0.78547684  0.78806349  0.42153721     0.15590
N458        N  0.78116510  0.71215150  0.43605472     0.75150
O459        O  0.91552203  0.82631847  0.33078642    -0.38300
O460        O  0.91577415  0.78086633  0.26118281    -0.38240
O461        O  0.78479125  0.67855287  0.46155272    -0.38950
O462        O  0.74649219  0.72885550  0.43457374    -0.39010
C463        C  0.83295572  0.60819727  0.45456302    -0.11290
C464        C  0.85501428  0.64110620  0.43132776     0.05710
C465        C  0.88412902  0.65721539  0.47359009    -0.06580
C466        C  0.87913252  0.64861833  0.53370515    -0.07330
C467        C  0.84207669  0.63368226  0.55394519    -0.01880
C468        C  0.82396159  0.60574415  0.51467284     0.04940
N469        N  0.80182708  0.57147999  0.53513361     0.67450
H470        H  0.82381933  0.58323398  0.42759549     0.16340
H471        H  0.89954289  0.66261717  0.56506646     0.16060
N472        N  0.91973714  0.68029411  0.46012054     0.75150
O473        O  0.77454401  0.55594906  0.50343896    -0.38300
O474        O  0.81498195  0.55172743  0.57852065    -0.38240
O475        O  0.91891740  0.70906073  0.42441118    -0.38950
O476        O  0.95179024  0.67486360  0.48993897    -0.39010
C477        C  0.93619564  0.64596233  0.26589976    -0.11290
C478        C  0.91630437  0.63993164  0.21250262     0.05710
C479        C  0.87634650  0.62509084  0.21345817    -0.06580
C480        C  0.85530847  0.62432228  0.26640742    -0.07330
C481        C  0.87212373  0.64018639  0.31902078    -0.01880
C482        C  0.91549137  0.64237443  0.31920860     0.04940
N483        N  0.93952521  0.63160666  0.36918712     0.67450
H484        H  0.96862168  0.65110720  0.26620991     0.16340
H485        H  0.82432611  0.61440327  0.26368313     0.16060
N486        N  0.85656138  0.61041132  0.16148677     0.75150
O487        O  0.93068973  0.60010489  0.39738255    -0.38300
O488        O  0.97482400  0.64575080  0.37497636    -0.38240
O489        O  0.87359253  0.58290199  0.13080412    -0.38950
O490        O  0.81955982  0.61914867  0.15223392    -0.39010
C491        C  0.77583448  0.61405146  0.35426182    -0.11290
C492        C  0.79663322  0.65114891  0.34835218     0.05710
C493        C  0.77244467  0.68066274  0.31812375    -0.06580
C494        C  0.73057971  0.68245661  0.32963734    -0.07330
C495        C  0.70783251  0.64862933  0.34874001    -0.01880
C496        C  0.73252924  0.61161056  0.35121500     0.04940
N497        N  0.71698948  0.57171689  0.33903538     0.67450
H498        H  0.79321683  0.58591745  0.35108715     0.16340
H499        H  0.71561856  0.70976175  0.31596553     0.16060
N500        N  0.78832151  0.70635407  0.27261469     0.75150
O501        O  0.73278123  0.54142397  0.36497538    -0.38300
O502        O  0.70031188  0.56509560  0.29032172    -0.38240
O503        O  0.82247351  0.69879501  0.25029058    -0.38950
O504        O  0.76447392  0.72909604  0.24387836    -0.39010
C505        C  0.13540100  0.34511243  0.71337392    -0.11290
C506        C  0.12218167  0.35240897  0.65536566     0.05710
C507        C  0.08089239  0.36686176  0.64924455    -0.06580
C508        C  0.05478583  0.36774160  0.69842536    -0.07330
C509        C  0.06823957  0.35466800  0.75364804    -0.01880
C510        C  0.10979713  0.34587981  0.76131402     0.04940
N511        N  0.12704832  0.33754349  0.81779459     0.67450
H512        H  0.16633669  0.33805412  0.72353177     0.16340
H513        H  0.02314075  0.37656343  0.69257638     0.16060
N514        N  0.06345754  0.37824055  0.59430548     0.75150
O515        O  0.15129614  0.30756638  0.82432914    -0.38300
O516        O  0.12314012  0.36349330  0.85862552    -0.38240
O517        O  0.03005085  0.36312047  0.57853424    -0.38950
O518        O  0.07435095  0.41088423  0.57098239    -0.39010
C519        C  0.16416522  0.37313309  0.44428717    -0.11290
C520        C  0.13653802  0.34915105  0.41185203     0.05710
C521        C  0.10346538  0.33568341  0.44594982    -0.06580
C522        C  0.10919064  0.33020258  0.50732268    -0.07330
C523        C  0.14072160  0.34913054  0.53967292    -0.01880
C524        C  0.16305342  0.37741097  0.50533340     0.04940
N525        N  0.17291646  0.41743451  0.52596447     0.67450
H526        H  0.18637126  0.39087544  0.42172928     0.16340
H527        H  0.08690055  0.31371736  0.53041406     0.16060
N528        N  0.06263286  0.33729300  0.42336692     0.75150
O529        O  0.20500495  0.43384275  0.50847288    -0.38300
O530        O  0.14491965  0.44036965  0.54570928    -0.38240
O531        O  0.03433093  0.31979015  0.44968711    -0.38950
O532        O  0.05342365  0.36239617  0.38378292    -0.39010
C533        C  0.10376034  0.39263984  0.20703359    -0.11290
C534        C  0.12391729  0.42984022  0.21246576     0.05710
C535        C  0.13796139  0.44199484  0.26833188    -0.06580
C536        C  0.13786312  0.41322689  0.31383096    -0.07330
C537        C  0.12627021  0.37203513  0.30442132    -0.01880
C538        C  0.10351008  0.36429804  0.25243417     0.04940
N539        N  0.07805643  0.32974193  0.24500006     0.67450
H540        H  0.08892399  0.38483073  0.16610991     0.16340
H541        H  0.15233738  0.42203882  0.35407240     0.16060
N542        N  0.15737150  0.48057187  0.27830640     0.75150
O543        O  0.04221023  0.33241933  0.26408596    -0.38300
O544        O  0.08548920  0.30457532  0.20417961    -0.38240
O545        O  0.15534523  0.49759359  0.32794913    -0.38950
O546        O  0.18187164  0.49424613  0.24147912    -0.39010
C547        C  0.15264420  0.08093533  0.65781094    -0.11290
C548        C  0.14324218  0.12316307  0.66564913     0.05710
C549        C  0.12501646  0.13455021  0.72055271    -0.06580
C550        C  0.12059350  0.10542106  0.76396742    -0.07330
C551        C  0.13366687  0.06497448  0.75667283    -0.01880
C552        C  0.14700763  0.05169581  0.70141261     0.04940
N553        N  0.15927041  0.01001504  0.69014137     0.67450
H554        H  0.17031996  0.07118562  0.62044878     0.16340
H555        H  0.10910434  0.11551425  0.80612120     0.16060
N556        N  0.11495770  0.17548649  0.73812817     0.75150
O557        O  0.15138949  0.99370765  0.64127128    -0.38300
O558        O  0.18223815  0.99117396  0.72546684    -0.38240
O559        O  0.07794263  0.18515565  0.74474077    -0.38950
O560        O  0.14121790  0.19583895  0.76566033    -0.39010
C561        C  0.18252070  0.26220422  0.60037526    -0.11290
C562        C  0.14739551  0.28661357  0.60911441     0.05710
C563        C  0.11277256  0.26308062  0.62843661    -0.06580
C564        C  0.11683685  0.22010592  0.63709402    -0.07330
C565        C  0.15533883  0.19998393  0.63876412    -0.01880
C566        C  0.18792362  0.22700485  0.63434459     0.04940
N567        N  0.22248643  0.22321555  0.67248071     0.67450
H568        H  0.20847400  0.27468131  0.57899521     0.16340
H569        H  0.08959704  0.20205507  0.63791188     0.16060
N570        N  0.07264591  0.27951728  0.63606189     0.75150
O571        O  0.25530592  0.23993935  0.65985882    -0.38300
O572        O  0.21783442  0.21090997  0.72387941    -0.38240
O573        O  0.04791903  0.27654980  0.59400205    -0.38950
O574        O  0.05821223  0.27854038  0.68687884    -0.39010
C575        C  0.16278836  0.22364606  0.31521861    -0.11290
C576        C  0.12957470  0.20584151  0.34315314     0.05710
C577        C  0.09317497  0.23071249  0.34048740    -0.06580
C578        C  0.09670624  0.27386214  0.33833114    -0.07330
C579        C  0.13421680  0.29243652  0.32697904    -0.01880
C580        C  0.16271171  0.26502208  0.30072580     0.04940
N581        N  0.18371786  0.27624083  0.24914648     0.67450
H582        H  0.18724271  0.20472465  0.29880423     0.16340
H583        H  0.06967574  0.29178126  0.34470432     0.16060
N584        N  0.05320732  0.21424474  0.34395257     0.75150
O585        O  0.22177542  0.27258307  0.24721678    -0.38300
O586        O  0.16417320  0.27724500  0.20164049    -0.38240
O587        O  0.04205968  0.19602697  0.38907807    -0.38950
O588        O  0.02659152  0.22527022  0.30716849    -0.39010
C589        C  0.12376008  0.11642921  0.45773572    -0.11290
C590        C  0.11788658  0.15457957  0.42923286     0.05710
C591        C  0.11624411  0.18840148  0.46916553    -0.06580
C592        C  0.13295299  0.18460252  0.52409835    -0.07330
C593        C  0.13979209  0.14841425  0.55498358    -0.01880
C594        C  0.13020400  0.11290777  0.51971153     0.04940
N595        N  0.12066217  0.07451693  0.54449362     0.67450
H596        H  0.12549639  0.08885514  0.43154616     0.16340
H597        H  0.14404406  0.21305621  0.53947399     0.16060
N598        N  0.10848462  0.22983698  0.45403492     0.75150
O599        O  0.08890372  0.07222486  0.57481933    -0.38300
O600        O  0.13596706  0.04210623  0.52295937    -0.38240
O601        O  0.07490490  0.24556903  0.46939736    -0.38950
O602        O  0.13859205  0.25294137  0.44916700    -0.39010
C603        C  0.04343155  0.12955926  0.26152827    -0.11290
C604        C  0.05980482  0.14334440  0.20874848     0.05710
C605        C  0.10189880  0.15001281  0.20635169    -0.06580
C606        C  0.12562333  0.14494932  0.25610630    -0.07330
C607        C  0.10888980  0.13814542  0.31192127    -0.01880
C608        C  0.06754654  0.12606761  0.31285371     0.04940
N609        N  0.05001834  0.10810455  0.36330885     0.67450
H610        H  0.01180122  0.12103671  0.26279850     0.16340
H611        H  0.15705816  0.15311517  0.25196947     0.16060
N612        N  0.12093632  0.16598217  0.15544629     0.75150
O613        O  0.01441842  0.11853651  0.37822746    -0.38300
O614        O  0.06382550  0.07394462  0.37991466    -0.38240
O615        O  0.10991650  0.20059111  0.13661196    -0.38950
O616        O  0.15366034  0.14989754  0.13708958    -0.39010
C617        C  0.39625161  0.10869053  0.73648580    -0.11290
C618        C  0.42538853  0.13800727  0.75141285     0.05710
C619        C  0.43498189  0.16785261  0.71053420    -0.06580
C620        C  0.41080088  0.17174197  0.66077800    -0.07330
C621        C  0.37521841  0.14843762  0.65146451    -0.01880
C622        C  0.37254576  0.11234265  0.68507279     0.04940
N623        N  0.34928334  0.07802523  0.66588227     0.67450
H624        H  0.39169725  0.08309256  0.76512509     0.16340
H625        H  0.41908476  0.19514888  0.63035606     0.16060
N626        N  0.46842677  0.19509084  0.71930963     0.75150
O627        O  0.35691500  0.06198182  0.61678601    -0.38300
O628        O  0.33043887  0.05734555  0.70282137    -0.38240
O629        O  0.50164699  0.18203460  0.74051666    -0.38950
O630        O  0.46625625  0.23122258  0.70059963    -0.39010
C631        C  0.27806270  0.13867566  0.66150526    -0.11290
C632        C  0.29594011  0.16131803  0.61737512     0.05710
C633        C  0.26874023  0.17649949  0.57380509    -0.06580
C634        C  0.22851513  0.16416497  0.56962322    -0.07330
C635        C  0.20890152  0.14487433  0.61577863    -0.01880
C636        C  0.23571028  0.13149763  0.66284560     0.04940
N637        N  0.22201698  0.11108693  0.71367870     0.67450
H638        H  0.29610786  0.12852319  0.69802196     0.16340
H639        H  0.21106344  0.17670757  0.53397208     0.16060
N640        N  0.28086202  0.20765742  0.53540879     0.75150
O641        O  0.23352239  0.07448300  0.72108085    -0.38300
O642        O  0.21211722  0.13210998  0.75797143    -0.38240
O643        O  0.30173631  0.19910708  0.49104179    -0.38950
O644        O  0.27427694  0.24455027  0.54922237    -0.39010
C645        C  0.20193681  0.16717637  0.40636094    -0.11290
C646        C  0.17869867  0.14519573  0.36675248     0.05710
C647        C  0.20094919  0.11665357  0.33138530    -0.06580
C648        C  0.24417177  0.11895731  0.32870369    -0.07330
C649        C  0.26736907  0.14698424  0.36332705    -0.01880
C650        C  0.24285776  0.17427624  0.39812374     0.04940
N651        N  0.25041070  0.21678149  0.40330287     0.67450
H652        H  0.18644303  0.18867555  0.43413352     0.16340
H653        H  0.25848307  0.09906246  0.29732626     0.16060
N654        N  0.18134072  0.08371409  0.30105999     0.75150
O655        O  0.24517276  0.23629644  0.35707888    -0.38300
O656        O  0.23764142  0.23457321  0.44880001    -0.38240
O657        O  0.19470452  0.07103497  0.25246945    -0.38950
O658        O  0.15466398  0.06336204  0.32655631    -0.39010
C659        C  0.37252912  0.13605399  0.44587461    -0.11290
C660        C  0.33171799  0.13127832  0.42710417     0.05710
C661        C  0.30740334  0.11099539  0.46876537    -0.06580
C662        C  0.31917351  0.11228548  0.52741224    -0.07330
C663        C  0.34962700  0.13963881  0.54685340    -0.01880
C664        C  0.38137184  0.14349803  0.50585631     0.04940
N665        N  0.42174261  0.15405820  0.52325383     0.67450
H666        H  0.39621209  0.14001306  0.41427011     0.16340
H667        H  0.29959566  0.09739458  0.55807511     0.16060
N668        N  0.27232484  0.08750788  0.45422986     0.75150
O669        O  0.44088759  0.13111051  0.55819059    -0.38300
O670        O  0.44146893  0.17887830  0.49320043    -0.38240
O671        O  0.27712430  0.04938643  0.44775720    -0.38950
O672        O  0.23812774  0.10036971  0.47177308    -0.39010
C673        C  0.32529631  0.07446307  0.32322686    -0.11290
C674        C  0.33567618  0.11606254  0.32016290     0.05710
C675        C  0.36122456  0.12642796  0.27272367    -0.06580
C676        C  0.36205703  0.10095740  0.22295174    -0.07330
C677        C  0.34183170  0.06355905  0.22146822    -0.01880
C678        C  0.32554772  0.04890094  0.27369982     0.04940
N679        N  0.30468595  0.01078650  0.27590863     0.67450
H680        H  0.31014971  0.06367375  0.36093244     0.16340
H681        H  0.37904522  0.11026019  0.18514362     0.16060
N682        N  0.38845359  0.16027129  0.27508878     0.75150
O683        O  0.30859046  0.98850429  0.32027796    -0.38300
O684        O  0.27635500  0.00359908  0.24002048    -0.38240
O685        O  0.41332883  0.16303545  0.31697272    -0.38950
O686        O  0.39476660  0.18076373  0.22978659    -0.39010
C687        C  0.22401872  0.32273339  0.65613826    -0.11290
C688        C  0.19772797  0.34830133  0.62294519     0.05710
C689        C  0.21628581  0.38698578  0.61721606    -0.06580
C690        C  0.25891825  0.38748255  0.60584303    -0.07330
C691        C  0.28499335  0.35270939  0.61590543    -0.01880
C692        C  0.26633620  0.32808059  0.65910891     0.04940
N693        N  0.28188170  0.32709368  0.71771100     0.67450
H694        H  0.21132123  0.30094921  0.68545258     0.16340
H695        H  0.27096914  0.41645781  0.59443506     0.16060
N696        N  0.19670357  0.42445004  0.63731569     0.75150
O697        O  0.29059021  0.36032100  0.74270628    -0.38300
O698        O  0.27553756  0.29638822  0.74908101    -0.38240
O699        O  0.16478066  0.42375806  0.66731970    -0.38950
O700        O  0.21406938  0.45825725  0.63149958    -0.39010
C701        C  0.34213108  0.42195043  0.63611133    -0.11290
C702        C  0.35431438  0.38043938  0.63975939     0.05710
C703        C  0.37597958  0.36959897  0.69129697    -0.06580
C704        C  0.37141917  0.39393241  0.74182633    -0.07330
C705        C  0.34843078  0.43048718  0.74125091    -0.01880
C706        C  0.33551666  0.44593070  0.68674536     0.04940
N707        N  0.31233813  0.48344675  0.68226006     0.67450
H708        H  0.33252884  0.43400734  0.59444439     0.16340
H709        H  0.38668976  0.38459698  0.78169606     0.16060
N710        N  0.40887590  0.34043336  0.69022211     0.75150
O711        O  0.31546114  0.50525076  0.63747640    -0.38300
O712        O  0.28356404  0.49089950  0.71719583    -0.38240
O713        O  0.44018246  0.34950778  0.66207502    -0.38950
O714        O  0.41279157  0.31544006  0.73154948    -0.39010
C715        C  0.34409012  0.28058353  0.65680974    -0.11290
C716        C  0.34886210  0.30222907  0.60474596     0.05710
C717        C  0.36856761  0.27735963  0.56094317    -0.06580
C718        C  0.36146635  0.23504195  0.55826159    -0.07330
C719        C  0.34806707  0.21329274  0.60679164    -0.01880
C720        C  0.34341807  0.23749617  0.65913307     0.04940
N721        N  0.34182974  0.21959391  0.71603474     0.67450
H722        H  0.34296928  0.29681502  0.69737452     0.16340
H723        H  0.37273405  0.21875519  0.52084032     0.16060
N724        N  0.40959364  0.28585437  0.54561495     0.75150
O725        O  0.36741944  0.23025773  0.75430535    -0.38300
O726        O  0.31032727  0.20182744  0.73235217    -0.38240
O727        O  0.43535259  0.29048386  0.58597323    -0.38950
O728        O  0.42247180  0.27478756  0.49618848    -0.39010
C729        C  0.31314467  0.25642998  0.30406146    -0.11290
C730        C  0.33724537  0.28042211  0.34193677     0.05710
C731        C  0.36691419  0.25718630  0.37227479    -0.06580
C732        C  0.35719411  0.21652962  0.38678366    -0.07330
C733        C  0.32957819  0.19258794  0.35250717    -0.01880
C734        C  0.31363800  0.21342510  0.30322827     0.04940
N735        N  0.29260049  0.19267973  0.25673685     0.67450
H736        H  0.28933425  0.27050592  0.27992754     0.16340
H737        H  0.37539283  0.20456148  0.42101180     0.16060
N738        N  0.40932879  0.26745788  0.36993833     0.75150
O739        O  0.25433308  0.19330137  0.25530874    -0.38300
O740        O  0.31116161  0.18548019  0.20967788    -0.38240
O741        O  0.42110067  0.29252498  0.33254777    -0.38950
O742        O  0.43578026  0.24372244  0.39201384    -0.39010
C743        C  0.37705783  0.34435844  0.44020697    -0.11290
C744        C  0.34187386  0.35159401  0.40597611     0.05710
C745        C  0.31536760  0.38125837  0.43261634    -0.06580
C746        C  0.31070072  0.38091355  0.49382095    -0.07330
C747        C  0.34047916  0.36256205  0.53069893    -0.01880
C748        C  0.37817302  0.35674903  0.50042111     0.04940
N749        N  0.41633933  0.36860656  0.52622075     0.67450
H750        H  0.40458516  0.33400835  0.41955275     0.16340
H751        H  0.28434182  0.39641598  0.50956982     0.16060
N752        N  0.29391289  0.41135061  0.39839200     0.75150
O753        O  0.44935667  0.35808633  0.50206463    -0.38300
O754        O  0.41701833  0.39750866  0.56303736    -0.38240
O755        O  0.26083736  0.42704425  0.41597662    -0.38950
O756        O  0.31098072  0.42651789  0.35469314    -0.39010
C757        C  0.38732707  0.36945863  0.29931499    -0.11290
C758        C  0.35171473  0.34594266  0.29077781     0.05710
C759        C  0.34387970  0.33303105  0.23108564    -0.06580
C760        C  0.37326359  0.33758779  0.18893227    -0.07330
C761        C  0.41027809  0.35568322  0.20004106    -0.01880
C762        C  0.41691389  0.37387222  0.25528794     0.04940
N763        N  0.45281638  0.39693898  0.26760617     0.67450
H764        H  0.39380126  0.38316417  0.34126111     0.16340
H765        H  0.36660379  0.32564007  0.14561497     0.16060
N766        N  0.30692239  0.31612578  0.20840770     0.75150
O767        O  0.46705270  0.42024724  0.22960100    -0.38300
O768        O  0.46750993  0.39791421  0.31863877    -0.38240
O769        O  0.28093814  0.34060252  0.18700325    -0.38950
O770        O  0.30944510  0.28112605  0.18458433    -0.39010
C771        C  0.26169072  0.35819477  0.30385890    -0.11290
C772        C  0.28197516  0.33384791  0.34506313     0.05710
C773        C  0.25726916  0.31711033  0.38934617    -0.06580
C774        C  0.21525753  0.31645878  0.38191601    -0.07330
C775        C  0.19408135  0.33877932  0.33884213    -0.01880
C776        C  0.21901589  0.35963431  0.29778434     0.04940
N777        N  0.20369021  0.37848551  0.24579948     0.67450
H778        H  0.27935475  0.37712705  0.27585539     0.16340
H779        H  0.19817770  0.29993211  0.41387619     0.16060
N780        N  0.27263131  0.30550140  0.44597822     0.75150
O781        O  0.21865265  0.41182515  0.22998966    -0.38300
O782        O  0.18673847  0.35661221  0.20752802    -0.38240
O783        O  0.25211214  0.31465708  0.49083815    -0.38950
O784        O  0.30431663  0.28374999  0.45195018    -0.39010
loop_ 
_geom_bond_atom_site_label_1 
_geom_bond_atom_site_label_2 
_geom_bond_distance 
_geom_bond_site_symmetry_2 
_ccdc_geom_bond_type 
C1          C730   1.594       .  S
C1          C744   1.614       .  S
C1          C758   1.582       .  S
C1          C772   1.569       .  S
C2          C691   1.638       .  S
C2          C702   1.568       .  S
C2          C716   1.628       .  S
C2          C747   1.619       .  S
C3          C649   1.616       .  S
C3          C660   1.580       .  S
C3          C674   1.571       .  S
C3          C733   1.596       .  S
C4          C621   1.569       .  S
C4          C632   1.582       .  S
C4          C663   1.595       .  S
C4          C719   1.596       .  S
C5          C576   1.594       .  S
C5          C590   1.599       .  S
C5          C607   1.563       .  S
C5          C646   1.592       .  S
C6          C548   1.569       .  S
C6          C565   1.601       .  S
C6          C593   1.638       .  S
C6          C635   1.599       .  S
C7          C520   1.614       .  S
C7          C537   1.569       .  S
C7          C579   1.599       .  S
C7          C775   1.595       .  S
C8          C506   1.577       .  S
C8          C523   1.617       .  S
C8          C562   1.617       .  S
C8          C688   1.633       .  S
C9          C450   1.600       .  S
C9          C464   1.615       .  S
C9          C481   1.590       .  S
C9          C492   1.619       .  S
C10         C408   1.603       .  S
C10         C422   1.566       .  S
C10         C436   1.610       .  S
C10         C467   1.593       .  S
C11         C366   1.612       .  S
C11         C380   1.562       .  S
C11         C397   1.598       .  S
C11         C495   1.624       .  S
C12         C338   1.626       .  S
C12         C352   1.558       .  S
C12         C369   1.601       .  S
C12         C411   1.586       .  S
C13         C296   1.597       .  S
C13         C313   1.579       .  S
C13         C324   1.599       .  S
C13         C394   1.584       .  S
C14         C268   1.641       .  S
C14         C282   1.565       .  S
C14         C299   1.632       .  S
C14         C341   1.643       .  S
C15         C240   1.576       .  S
C15         C254   1.559       .  S
C15         C327   1.592       .  S
C15         C453   1.595       .  S
C16         C226   1.563       .  S
C16         C243   1.577       .  S
C16         C271   1.599       .  S
C16         C439   1.593       .  S
O17          C20   1.267       .  A
O17         Cd22   2.519       .  S
C18          O27   1.267       .  A
C18          O23   1.270       .  A
C18         C425   1.482       .  S
O19          C25   1.262       .  A
O19         Cd22   2.492       .  S
C20          O28   1.260       .  A
C20         C215   1.464       .  S
C21          O26   1.266   1_556  A
C21          O24   1.259       .  A
C21          C34   1.459       .  S
Cd22         O29   2.501       .  S
Cd22         O28   2.415       .  S
Cd22         O27   2.404       .  S
Cd22         O23   2.496       .  S
Cd22         O26   2.477   1_556  S
Cd22         O24   2.452       .  S
C25          O29   1.265       .  A
C25          C90   1.474       .  S
O30          C33   1.265       .  A
O30         Cd35   2.517   1_455  S
C31          O40   1.266       .  A
C31          O36   1.269       .  A
C31         C478   1.486       .  S
O32          C38   1.262       .  A
O32         Cd35   2.492   1_556  S
C33          O41   1.261   1_554  A
C33         C202   1.468       .  S
C34          O39   1.267       .  A
C34          O37   1.261   1_556  A
Cd35         O42   2.515       .  S
Cd35         O41   2.442   1_654  S
Cd35         O40   2.457       .  S
Cd35         O36   2.483       .  S
Cd35         O39   2.466   1_554  S
Cd35         O37   2.442       .  S
C38          O42   1.266   1_556  A
C38          C60   1.477       .  S
O43          C46   1.271       .  A
O43         Cd48   2.513       .  S
C44          O53   1.261       .  A
C44          O49   1.267       .  A
C44         C176   1.467       .  S
O45          C51   1.267       .  A
O45         Cd48   2.489   1_556  S
C46          O54   1.267       .  A
C46         C257   1.488       .  S
C47          O52   1.263   1_554  A
C47          O50   1.265       .  A
C47         C116   1.477   1_554  S
Cd48         O55   2.443       .  S
Cd48         O54   2.392       .  S
Cd48         O53   2.428   1_565  S
Cd48         O49   2.518   1_565  S
Cd48         O52   2.496   1_554  S
Cd48         O50   2.513       .  S
C51          O55   1.259   1_556  A
C51          C64   1.460       .  S
O56          C59   1.270       .  A
O56         Cd61   2.493       .  S
C57          O66   1.259       .  A
C57          O62   1.265       .  A
C57         C187   1.466       .  S
O58          C64   1.266       .  A
O58         Cd61   2.466       .  S
C59          O67   1.266       .  A
C59         C229   1.484       .  S
C60          O65   1.260       .  A
C60          O63   1.264       .  A
Cd61         O68   2.465       .  S
Cd61         O67   2.422       .  S
Cd61         O66   2.432   1_655  S
Cd61         O62   2.524   1_655  S
Cd61         O65   2.505       .  S
Cd61         O63   2.514       .  S
C64          O68   1.260       .  A
O69          C72   1.268       .  A
O69         Cd74   2.519       .  S
C70          O79   1.262       .  A
C70          O75   1.270       .  A
C70         C355   1.492       .  S
O71          C77   1.263       .  A
O71         Cd74   2.504       .  S
C72          O80   1.262       .  A
C72         C135   1.470       .  S
C73          O78   1.267       .  A
C73          O76   1.263       .  A
C73          C86   1.460       .  S
Cd74         O81   2.521       .  S
Cd74         O80   2.437       .  S
Cd74         O79   2.412       .  S
Cd74         O75   2.530       .  S
Cd74         O78   2.460       .  S
Cd74         O76   2.449       .  S
C77          O81   1.267       .  A
C77          C99   1.482       .  S
O82          C85   1.267       .  A
O82         Cd87   2.504       .  S
C83          O92   1.265       .  A
C83          O88   1.271       .  A
C83         C383   1.484       .  S
O84          C90   1.261       .  A
O84         Cd87   2.495   1_556  S
C85          O93   1.261   1_554  A
C85         C124   1.460       .  S
C86          O91   1.265       .  A
C86          O89   1.260   1_556  A
Cd87         O94   2.510       .  S
Cd87         O93   2.398   1_554  S
Cd87         O92   2.355       .  S
Cd87         O88   2.545       .  S
Cd87         O91   2.476   1_554  S
Cd87         O89   2.456       .  S
C90          O94   1.263   1_556  A
O95          C98   1.269       .  A
O95        Cd100   2.501       .  S
C96         O105   1.263       .  A
C96         O101   1.267       .  A
C96         C161   1.470       .  S
O97         C103   1.268   1_556  A
O97        Cd100   2.476   1_556  S
C98         O106   1.264       .  A
C98         C310   1.487       .  S
C99         O104   1.264       .  A
C99         O102   1.267   1_556  A
Cd100       O107   2.446       .  S
Cd100       O106   2.427       .  S
Cd100       O105   2.449       .  S
Cd100       O101   2.506       .  S
Cd100       O104   2.505   1_554  S
Cd100       O102   2.517       .  S
C103        O107   1.261       .  A
C103        C112   1.461   1_554  S
O108        C111   1.266       .  A
O108       Cd113   2.489   1_545  S
C109        O118   1.266       .  A
C109        O114   1.268       .  A
C109        C285   1.473       .  S
O110        C116   1.263   1_554  A
O110       Cd113   2.506   1_554  S
C111        O119   1.263       .  A
C111        C150   1.462       .  S
C112        O117   1.265   1_556  A
C112        O115   1.259       .  A
Cd113       O120   2.504   1_565  S
Cd113       O119   2.428   1_565  S
Cd113       O118   2.371       .  S
Cd113       O114   2.514       .  S
Cd113       O117   2.476   1_556  S
Cd113       O115   2.465       .  S
C116        O120   1.264   1_565  A
O121        C124   1.267       .  A
O121       Cd126   2.504       .  S
C122        O131   1.264       .  A
C122        O127   1.271       .  A
C122        C761   1.481       .  S
O123        C129   1.267       .  A
O123       Cd126   2.493   1_556  S
C124        O132   1.261       .  A
C125        O130   1.263   1_554  A
C125        O128   1.263       .  A
C125        C151   1.474   1_554  S
Cd126       O133   2.438       .  S
Cd126       O132   2.400       .  S
Cd126       O131   2.332       .  S
Cd126       O127   2.533       .  S
Cd126       O130   2.498   1_554  S
Cd126       O128   2.501       .  S
C129        O133   1.260   1_556  A
C129        C138   1.461       .  S
O134        C137   1.270       .  A
O134       Cd139   2.494       .  S
C135        O144   1.260       .  A
C135        O140   1.265       .  A
O136        C142   1.260       .  A
O136       Cd139   2.518       .  S
C137        O145   1.268       .  A
C137        C705   1.485       .  S
C138        O143   1.265       .  A
C138        O141   1.260       .  A
Cd139       O146   2.532       .  S
Cd139       O145   2.446       .  S
Cd139       O144   2.445       .  S
Cd139       O140   2.529       .  S
Cd139       O143   2.463       .  S
Cd139       O141   2.474       .  S
C142        O146   1.265       .  A
C142        C203   1.483       .  S
O147        C150   1.265       .  A
O147       Cd152   2.493       .  S
C148        O157   1.267       .  A
C148        O153   1.263       .  A
C148        C618   1.475       .  S
O149        C155   1.263       .  A
O149       Cd152   2.425       .  S
C150        O158   1.261       .  A
C151        O156   1.265   1_556  A
C151        O154   1.264       .  A
Cd152       O159   2.482       .  S
Cd152       O158   2.430       .  S
Cd152       O157   2.442       .  S
Cd152       O153   2.479       .  S
Cd152       O156   2.493   1_556  S
Cd152       O154   2.494       .  S
C155        O159   1.265       .  A
C155        C164   1.460   1_556  S
O160        C163   1.269       .  A
O160       Cd165   2.492       .  S
C161        O170   1.264       .  A
C161        O166   1.267       .  A
O162        C168   1.264   1_556  A
O162       Cd165   2.499   1_566  S
C163        O171   1.263       .  A
C163        C677   1.480       .  S
C164        O169   1.267   1_554  A
C164        O167   1.262       .  A
Cd165       O172   2.490       .  S
Cd165       O171   2.424       .  S
Cd165       O170   2.452   1_545  S
Cd165       O166   2.505   1_545  S
Cd165       O169   2.489   1_554  S
Cd165       O167   2.425       .  S
C168        O172   1.265   1_565  A
C168        C194   1.474   1_554  S
O173        C176   1.266       .  A
O173       Cd178   2.512       .  S
C174        O183   1.264       .  A
C174        O179   1.270   1_455  A
C174        C604   1.489       .  S
O175        C181   1.267       .  A
O175       Cd178   2.486   1_456  S
C176        O184   1.262       .  A
C177        O182   1.263       .  A
C177        O180   1.266   1_556  A
C177        C216   1.482       .  S
Cd178       O185   2.447   1_655  S
Cd178       O184   2.428       .  S
Cd178       O183   2.391   1_655  S
Cd178       O179   2.527       .  S
Cd178       O182   2.518   1_554  S
Cd178       O180   2.509       .  S
C181        O185   1.261   1_556  A
C181        C190   1.462       .  S
O186        C189   1.268       .  A
O186       Cd191   2.507       .  S
C187        O196   1.261       .  A
C187        O192   1.266       .  A
O188        C194   1.261   1_544  A
O188       Cd191   2.487   1_554  S
C189        O197   1.266       .  A
C189        C551   1.476       .  S
C190        O195   1.266       .  A
C190        O193   1.261       .  A
Cd191       O198   2.515   1_545  S
Cd191       O197   2.400       .  S
Cd191       O196   2.426   1_545  S
Cd191       O192   2.514   1_545  S
Cd191       O195   2.468       .  S
Cd191       O193   2.473       .  S
C194        O198   1.264       .  A
O199        C202   1.266       .  A
O199       Cd204   2.521       .  S
C200        O209   1.267       .  A
C200        O205   1.269       .  A
C200        C534   1.485       .  S
O201        C207   1.266       .  A
O201       Cd204   2.476   1_556  S
C202        O210   1.260       .  A
C203        O208   1.261       .  A
C203        O206   1.267   1_556  A
Cd204       O211   2.463       .  S
Cd204       O210   2.439       .  S
Cd204       O209   2.434       .  S
Cd204       O205   2.514       .  S
Cd204       O208   2.507   1_554  S
Cd204       O206   2.536       .  S
C207        O211   1.260   1_556  A
C207        C220   1.461       .  S
O212        C215   1.267       .  A
O212       Cd217   2.517       .  S
C213        O222   1.268       .  A
C213        O218   1.267       .  A
C213        C509   1.490       .  S
O214        C220   1.265       .  A
O214       Cd217   2.485   1_455  S
C215        O223   1.260       .  A
C216        O221   1.262   1_655  A
C216        O219   1.268       .  A
Cd217       O224   2.457   1_655  S
Cd217       O223   2.414       .  S
Cd217       O222   2.431   1_655  S
Cd217       O218   2.515   1_655  S
Cd217       O221   2.488   1_655  S
Cd217       O219   2.532       .  S
C220        O224   1.259       .  A
C225        C226   1.417       .  A
C225        C230   1.404       .  A
C225        H232   1.073       .  S
C226        C227   1.421       .  A
C227        C228   1.401       .  A
C227        N234   1.429       .  S
C228        C229   1.402       .  A
C228        H233   1.084       .  S
C229        C230   1.408       .  A
C230        N231   1.434       .  S
N231        O235   1.263       .  A
N231        O236   1.262   1_655  A
N234        O237   1.262       .  A
N234        O238   1.262       .  A
C239        C240   1.425       .  A
C239        C244   1.435       .  A
C239        H246   1.078       .  S
C240        C241   1.399       .  A
C241        C242   1.373       .  A
C241        N248   1.423       .  S
C242        C243   1.408       .  A
C242        H247   1.076       .  S
C243        C244   1.438       .  A
C244        N245   1.428       .  S
N245        O249   1.262       .  A
N245        O250   1.262       .  A
N248        O251   1.256       .  A
N248        O252   1.262       .  A
C253        C254   1.417       .  A
C253        C258   1.413       .  A
C253        H260   1.076       .  S
C254        C255   1.431       .  A
C255        C256   1.391       .  A
C255        N262   1.431       .  S
C256        C257   1.394       .  A
C256        H261   1.084       .  S
C257        C258   1.413       .  A
C258        N259   1.437       .  S
N259        O263   1.263       .  A
N259        O264   1.263       .  A
N262        O265   1.262       .  A
N262        O266   1.259       .  A
C267        C268   1.402       .  A
C267        C272   1.415       .  A
C267        H274   1.042       .  S
C268        C269   1.464       .  A
C269        C270   1.433       .  A
C269        N276   1.431       .  S
C270        C271   1.420       .  A
C270        H275   1.079       .  S
C271        C272   1.387       .  A
C272        N273   1.440       .  S
N273        O277   1.257       .  A
N273        O278   1.263       .  A
N276        O279   1.260       .  A
N276        O280   1.262       .  A
C281        C282   1.424       .  A
C281        C286   1.381       .  A
C281        H288   1.075       .  S
C282        C283   1.426       .  A
C283        C284   1.419       .  A
C283        N290   1.431       .  S
C284        C285   1.409       .  A
C284        H289   1.083       .  S
C285        C286   1.398       .  A
C286        N287   1.441       .  S
N287        O291   1.263       .  A
N287        O292   1.263       .  A
N290        O293   1.262       .  A
N290        O294   1.261       .  A
C295        C296   1.416       .  A
C295        C300   1.430       .  A
C295        H302   1.068       .  S
C296        C297   1.440       .  A
C297        C298   1.414       .  A
C297        N304   1.452       .  S
C298        C299   1.414       .  A
C298        H303   1.059       .  S
C299        C300   1.427       .  A
C300        N301   1.443       .  S
N301        O305   1.264       .  A
N301        O306   1.260       .  A
N304        O307   1.257       .  A
N304        O308   1.264       .  A
C309        C310   1.402       .  A
C309        C314   1.414       .  A
C309        H316   1.083       .  S
C310        C311   1.409       .  A
C311        C312   1.397       .  A
C311        N318   1.431       .  S
C312        C313   1.412       .  A
C312        H317   1.076       .  S
C313        C314   1.427       .  A
C314        N315   1.438       .  S
N315        O319   1.262       .  A
N315        O320   1.263       .  A
N318        O321   1.262       .  A
N318        O322   1.262       .  A
C323        C324   1.413       .  A
C323        C328   1.427       .  A
C323        H330   1.079       .  S
C324        C325   1.414       .  A
C325        C326   1.388       .  A
C325        N332   1.429       .  S
C326        C327   1.403       .  A
C326        H331   1.070       .  S
C327        C328   1.443       .  A
C328        N329   1.437       .  S
N329        O333   1.262       .  A
N329        O334   1.258       .  A
N332        O335   1.261       .  A
N332        O336   1.251       .  A
C337        C338   1.436       .  A
C337        C342   1.417       .  A
C337        H344   1.078       .  S
C338        C339   1.441       .  A
C339        C340   1.430       .  A
C339        N346   1.432       .  S
C340        C341   1.415       .  A
C340        H345   1.076       .  S
C341        C342   1.416       .  A
C342        N343   1.441       .  S
N343        O347   1.261       .  A
N343        O348   1.263       .  A
N346        O349   1.259       .  A
N346        O350   1.263       .  A
C351        C352   1.410       .  A
C351        C356   1.391       .  A
C351        H358   1.074       .  S
C352        C353   1.428       .  A
C353        C354   1.417       .  A
C353        N360   1.430       .  S
C354        C355   1.408       .  A
C354        H359   1.083       .  S
C355        C356   1.409       .  A
C356        N357   1.433       .  S
N357        O361   1.262       .  A
N357        O362   1.263       .  A
N360        O363   1.262       .  A
N360        O364   1.262       .  A
C365        C366   1.423       .  A
C365        C370   1.412       .  A
C365        H372   1.081       .  S
C366        C367   1.418       .  A
C367        C368   1.415       .  A
C367        N374   1.428       .  S
C368        C369   1.421       .  A
C368        H373   1.069       .  S
C369        C370   1.418       .  A
C370        N371   1.413       .  S
N371        O375   1.258       .  A
N371        O376   1.262       .  A
N374        O377   1.262       .  A
N374        O378   1.261       .  A
C379        C380   1.423       .  A
C379        C384   1.420       .  A
C379        H386   1.079       .  S
C380        C381   1.431       .  A
C381        C382   1.383       .  A
C381        N388   1.423       .  S
C382        C383   1.388       .  A
C382        H387   1.085       .  S
C383        C384   1.414       .  A
C384        N385   1.438       .  S
N385        O389   1.263       .  A
N385        O390   1.262       .  A
N388        O391   1.262       .  A
N388        O392   1.260       .  A
C393        C394   1.424       .  A
C393        C398   1.425       .  A
C393        H400   1.078       .  S
C394        C395   1.424       .  A
C395        C396   1.395       .  A
C395        N402   1.435       .  S
C396        C397   1.412       .  A
C396        H401   1.080       .  S
C397        C398   1.432       .  A
C398        N399   1.436       .  S
N399        O403   1.262       .  A
N399        O404   1.263       .  A
N402        O405   1.260       .  A
N402        O406   1.259       .  A
C407        C408   1.427       .  A
C407        C412   1.418       .  A
C407        H414   1.079       .  S
C408        C409   1.419       .  A
C409        C410   1.387       .  A
C409        N416   1.404       .  S
C410        C411   1.399       .  A
C410        H415   1.077       .  S
C411        C412   1.433       .  A
C412        N413   1.436       .  S
N413        O417   1.262       .  A
N413        O418   1.261       .  A
N416        O419   1.260       .  A
N416        O420   1.254       .  A
C421        C422   1.418       .  A
C421        C426   1.409       .  A
C421        H428   1.080       .  S
C422        C423   1.437       .  A
C423        C424   1.394       .  A
C423        N430   1.435       .  S
C424        C425   1.393       .  A
C424        H429   1.084       .  S
C425        C426   1.413       .  A
C426        N427   1.438       .  S
N427        O431   1.263       .  A
N427        O432   1.263       .  A
N430        O433   1.262       .  A
N430        O434   1.256       .  A
C435        C436   1.422       .  A
C435        C440   1.387       .  A
C435        H442   1.063       .  S
C436        C437   1.439       .  A
C437        C438   1.429       .  A
C437        N444   1.436       .  S
C438        C439   1.421       .  A
C438        H443   1.079       .  S
C439        C440   1.404       .  A
C440        N441   1.431       .  S
N441        O445   1.262       .  A
N441        O446   1.255       .  A
N444        O447   1.262       .  A
N444        O448   1.263       .  A
C449        C450   1.429       .  A
C449        C454   1.427       .  A
C449        H456   1.076       .  S
C450        C451   1.438       .  A
C451        C452   1.403       .  A
C451        N458   1.444       .  S
C452        C453   1.407       .  A
C452        H457   1.074       .  S
C453        C454   1.427       .  A
C454        N455   1.438       .  S
N455        O459   1.261       .  A
N455        O460   1.263       .  A
N458        O461   1.254       .  A
N458        O462   1.257       .  A
C463        C464   1.420       .  A
C463        C468   1.414       .  A
C463        H470   1.065       .  S
C464        C465   1.459       .  A
C465        C466   1.420       .  A
C465        N472   1.443       .  S
C466        C467   1.406       .  A
C466        H471   1.084       .  S
C467        C468   1.413       .  A
C468        N469   1.433       .  S
N469        O473   1.262       .  A
N469        O474   1.262       .  A
N472        O475   1.254       .  A
N472        O476   1.264       .  A
C477        C478   1.398       .  A
C477        C482   1.410       .  A
C477        H484   1.083       .  S
C478        C479   1.410       .  A
C479        C480   1.402       .  A
C479        N486   1.436       .  S
C480        C481   1.420       .  A
C480        H485   1.077       .  S
C481        C482   1.430       .  A
C482        N483   1.431       .  S
N483        O487   1.262       .  A
N483        O488   1.264       .  A
N486        O489   1.262       .  A
N486        O490   1.263       .  A
C491        C492   1.413       .  A
C491        C496   1.430       .  A
C491        H498   1.077       .  S
C492        C493   1.423       .  A
C493        C494   1.404       .  A
C493        N500   1.453       .  S
C494        C495   1.422       .  A
C494        H499   1.062       .  S
C495        C496   1.448       .  A
C496        N497   1.435       .  S
N497        O501   1.264       .  A
N497        O502   1.259       .  A
N500        O503   1.257       .  A
N500        O504   1.259       .  A
C505        C506   1.417       .  A
C505        C510   1.389       .  A
C505        H512   1.065       .  S
C506        C507   1.437       .  A
C507        C508   1.421       .  A
C507        N514   1.430       .  S
C508        C509   1.407       .  A
C508        H513   1.083       .  S
C509        C510   1.403       .  A
C510        N511   1.437       .  S
N511        O515   1.263       .  A
N511        O516   1.262       .  A
N514        O517   1.263       .  A
N514        O518   1.259       .  A
C519        C520   1.414       .  A
C519        C524   1.405       .  A
C519        H526   1.080       .  S
C520        C521   1.423       .  A
C521        C522   1.431       .  A
C521        N528   1.437       .  S
C522        C523   1.419       .  A
C522        H527   1.066       .  S
C523        C524   1.437       .  A
C524        N525   1.430       .  S
N525        O529   1.263       .  A
N525        O530   1.261       .  A
N528        O531   1.263       .  A
N528        O532   1.262       .  A
C533        C534   1.401       .  A
C533        C538   1.402       .  A
C533        H540   1.084       .  S
C534        C535   1.413       .  A
C535        C536   1.413       .  A
C535        N542   1.441       .  S
C536        C537   1.421       .  A
C536        H541   1.074       .  S
C537        C538   1.426       .  A
C538        N539   1.428       .  S
N539        O543   1.262       .  A
N539        O544   1.262       .  A
N542        O545   1.263       .  A
N542        O546   1.262       .  A
C547        C548   1.420       .  A
C547        C552   1.407       .  A
C547        H554   1.080       .  S
C548        C549   1.440       .  A
C549        C550   1.396       .  A
C549        N556   1.428       .  S
C550        C551   1.393       .  A
C550        H555   1.085       .  S
C551        C552   1.405       .  A
C552        N553   1.437       .  S
N553        O557   1.262   1_545  A
N553        O558   1.262   1_545  A
N556        O559   1.263       .  A
N556        O560   1.262       .  A
C561        C562   1.407       .  A
C561        C566   1.406       .  A
C561        H568   1.077       .  S
C562        C563   1.461       .  A
C563        C564   1.426       .  A
C563        N570   1.428       .  S
C564        C565   1.418       .  A
C564        H569   1.083       .  S
C565        C566   1.407       .  A
C566        N567   1.434       .  S
N567        O571   1.257       .  A
N567        O572   1.260       .  A
N570        O573   1.261       .  A
N570        O574   1.262       .  A
C575        C576   1.409       .  A
C575        C580   1.398       .  A
C575        H582   1.074       .  S
C576        C577   1.437       .  A
C577        C578   1.421       .  A
C577        N584   1.433       .  S
C578        C579   1.413       .  A
C578        H583   1.066       .  S
C579        C580   1.418       .  A
C580        N581   1.428       .  S
N581        O585   1.257       .  A
N581        O586   1.261       .  A
N584        O587   1.260       .  A
N584        O588   1.262       .  A
C589        C590   1.425       .  A
C589        C594   1.440       .  A
C589        H596   1.079       .  S
C590        C591   1.429       .  A
C591        C592   1.376       .  A
C591        N598   1.422       .  S
C592        C593   1.401       .  A
C592        H597   1.062       .  S
C593        C594   1.446       .  A
C594        N595   1.426       .  S
N595        O599   1.263       .  A
N595        O600   1.263       .  A
N598        O601   1.261       .  A
N598        O602   1.264       .  A
C603        C604   1.410       .  A
C603        C608   1.419       .  A
C603        H610   1.083       .  S
C604        C605   1.408       .  A
C605        C606   1.387       .  A
C605        N612   1.436       .  S
C606        C607   1.417       .  A
C606        H611   1.078       .  S
C607        C608   1.424       .  A
C608        N609   1.432       .  S
N609        O613   1.263       .  A
N609        O614   1.261       .  A
N612        O615   1.263       .  A
N612        O616   1.263       .  A
C617        C618   1.407       .  A
C617        C622   1.414       .  A
C617        H624   1.083       .  S
C618        C619   1.403       .  A
C619        C620   1.392       .  A
C619        N626   1.441       .  S
C620        C621   1.423       .  A
C620        H625   1.081       .  S
C621        C622   1.422       .  A
C622        N623   1.434       .  S
N623        O627   1.261       .  A
N623        O628   1.263       .  A
N626        O629   1.263       .  A
N626        O630   1.263       .  A
C631        C632   1.400       .  A
C631        C636   1.418       .  A
C631        H638   1.075       .  S
C632        C633   1.424       .  A
C633        C634   1.393       .  A
C633        N640   1.419       .  S
C634        C635   1.405       .  A
C634        H639   1.076       .  S
C635        C636   1.455       .  A
C636        N637   1.429       .  S
N637        O641   1.263       .  A
N637        O642   1.261       .  A
N640        O643   1.257       .  A
N640        O644   1.260       .  A
C645        C646   1.386       .  A
C645        C650   1.385       .  A
C645        H652   1.068       .  S
C646        C647   1.425       .  A
C647        C648   1.427       .  A
C647        N654   1.437       .  S
C648        C649   1.433       .  A
C648        H653   1.070       .  S
C649        C650   1.432       .  A
C650        N651   1.421       .  S
N651        O655   1.252       .  A
N651        O656   1.259       .  A
N654        O657   1.263       .  A
N654        O658   1.262       .  A
C659        C660   1.418       .  A
C659        C664   1.422       .  A
C659        H666   1.078       .  S
C660        C661   1.427       .  A
C661        C662   1.397       .  A
C661        N668   1.434       .  S
C662        C663   1.422       .  A
C662        H667   1.082       .  S
C663        C664   1.418       .  A
C664        N665   1.432       .  S
N665        O669   1.262       .  A
N665        O670   1.262       .  A
N668        O671   1.262       .  A
N668        O672   1.261       .  A
C673        C674   1.412       .  A
C673        C678   1.402       .  A
C673        H680   1.067       .  S
C674        C675   1.426       .  A
C675        C676   1.405       .  A
C675        N682   1.438       .  S
C676        C677   1.404       .  A
C676        H681   1.084       .  S
C677        C678   1.408       .  A
C678        N679   1.436       .  S
N679        O683   1.262   1_545  A
N679        O684   1.263       .  A
N682        O685   1.261       .  A
N682        O686   1.263       .  A
C687        C688   1.416       .  A
C687        C692   1.408       .  A
C687        H694   1.077       .  S
C688        C689   1.423       .  A
C689        C690   1.429       .  A
C689        N696   1.447       .  S
C690        C691   1.433       .  A
C690        H695   1.070       .  S
C691        C692   1.432       .  A
C692        N693   1.434       .  S
N693        O697   1.260       .  A
N693        O698   1.263       .  A
N696        O699   1.260       .  A
N696        O700   1.263       .  A
C701        C702   1.413       .  A
C701        C706   1.409       .  A
C701        H708   1.080       .  S
C702        C703   1.421       .  A
C703        C704   1.405       .  A
C703        N710   1.430       .  S
C704        C705   1.404       .  A
C704        H709   1.084       .  S
C705        C706   1.413       .  A
C706        N707   1.438       .  S
N707        O711   1.262       .  A
N707        O712   1.263       .  A
N710        O713   1.261       .  A
N710        O714   1.263       .  A
C715        C716   1.406       .  A
C715        C720   1.412       .  A
C715        H722   1.066       .  S
C716        C717   1.436       .  A
C717        C718   1.409       .  A
C717        N724   1.430       .  S
C718        C719   1.405       .  A
C718        H723   1.069       .  S
C719        C720   1.437       .  A
C720        N721   1.437       .  S
N721        O725   1.262       .  A
N721        O726   1.259       .  A
N724        O727   1.260       .  A
N724        O728   1.259       .  A
C729        C730   1.413       .  A
C729        C734   1.407       .  A
C729        H736   1.058       .  S
C730        C731   1.411       .  A
C731        C732   1.418       .  A
C731        N738   1.443       .  S
C732        C733   1.435       .  A
C732        H737   1.058       .  S
C733        C734   1.418       .  A
C734        N735   1.437       .  S
N735        O739   1.259       .  A
N735        O740   1.261       .  A
N738        O741   1.261       .  A
N738        O742   1.263       .  A
C743        C744   1.412       .  A
C743        C748   1.434       .  A
C743        H750   1.072       .  S
C744        C745   1.428       .  A
C745        C746   1.412       .  A
C745        N752   1.438       .  S
C746        C747   1.419       .  A
C746        H751   1.060       .  S
C747        C748   1.434       .  A
C748        N749   1.442       .  S
N749        O753   1.263       .  A
N749        O754   1.261       .  A
N752        O755   1.262       .  A
N752        O756   1.262       .  A
C757        C758   1.425       .  A
C757        C762   1.417       .  A
C757        H764   1.078       .  S
C758        C759   1.450       .  A
C759        C760   1.383       .  A
C759        N766   1.437       .  S
C760        C761   1.385       .  A
C760        H765   1.085       .  S
C761        C762   1.410       .  A
C762        N763   1.438       .  S
N763        O767   1.262       .  A
N763        O768   1.263       .  A
N766        O769   1.262       .  A
N766        O770   1.265       .  A
C771        C772   1.400       .  A
C771        C776   1.410       .  A
C771        H778   1.077       .  S
C772        C773   1.425       .  A
C773        C774   1.392       .  A
C773        N780   1.442       .  S
C774        C775   1.408       .  A
C774        H779   1.082       .  S
C775        C776   1.439       .  A
C776        N777   1.432       .  S
N777        O781   1.263       .  A
N777        O782   1.260       .  A
N780        O783   1.264       .  A
N780        O784   1.259       .  A
