geometry optimzed in LAMMPS
_audit_creation_date              2020-11-30 
_audit_creation_method            'lammps2cif' 
_symmetry_space_group_name_H-M    'P1' 
_symmetry_Int_Tables_number       1 
_symmetry_cell_setting            triclinic 
loop_ 
_symmetry_equiv_pos_as_xyz 
  x,y,z 
_cell_length_a                    27.107865078415045 
_cell_length_b                    28.85937867782319 
_cell_length_c                    26.51498289751987 
_cell_angle_alpha                 89.90928429907324 
_cell_angle_beta                  90.02932770146666 
_cell_angle_gamma                 90.02445080204106 
loop_ 
_atom_site_label 
_atom_site_type_symbol 
_atom_site_fract_x 
_atom_site_fract_y 
_atom_site_fract_z 
_atom_site_charge 
C1          C  0.02490450  0.50068169  0.99941949     0.01260
C2          C  0.47469683  0.99957486  0.99983065     0.01260
C3          C  0.02492769  0.00063695  0.49851000     0.01260
C4          C  0.47473726  0.00095763  0.49926766     0.01260
Zn5        Zn  0.24779568  0.19552656  0.95689365     1.49720
Zn6        Zn  0.19082029  0.25102449  0.04332379     1.49360
Zn7        Zn  0.30902409  0.24909231  0.04307714     1.49110
Zn8        Zn  0.25180959  0.30476098  0.95671601     1.49480
O9          O  0.24984096  0.25012173  0.00025708    -1.83430
O10         O  0.18716323  0.15724035  0.96975317    -0.74060
O11         O  0.20924963  0.25203671  0.11713978    -0.73880
O12         O  0.35009028  0.19210120  0.02887536    -0.73400
O13         O  0.14877806  0.19374955  0.03230422    -0.74080
O14         O  0.30687654  0.15550105  0.96993011    -0.73680
O15         O  0.29091965  0.24786609  0.11687421    -0.74260
O16         O  0.31267662  0.34292429  0.96931081    -0.73650
O17         O  0.14970705  0.30811942  0.02912862    -0.74410
O18         O  0.35108930  0.30628290  0.03192284    -0.73800
O19         O  0.19279811  0.34479842  0.97003632    -0.74270
O20         O  0.25130828  0.28849197  0.88291900    -0.74180
O21         O  0.24776902  0.21185287  0.88316322    -0.73960
C22         C  0.15197968  0.16022524  0.00128337     0.77830
C23         C  0.25018145  0.24987450  0.14066230     0.78320
C24         C  0.34418820  0.15797359  0.99902845     0.77280
C25         C  0.34794113  0.33981021  0.00079879     0.77650
C26         C  0.15556170  0.34230377  0.99921784     0.78790
C27         C  0.24939887  0.25013387  0.85940582     0.77840
Zn28       Zn  0.25109178  0.19639946  0.54378748     1.49720
Zn29       Zn  0.19042390  0.25053990  0.45738148     1.49360
Zn30       Zn  0.24907738  0.30553621  0.54319988     1.49110
Zn31       Zn  0.30883250  0.25081090  0.45683531     1.49480
O32         O  0.24984312  0.25082687  0.49998725    -1.83430
O33         O  0.19191085  0.15698331  0.53049920    -0.74060
O34         O  0.14932747  0.30819351  0.46889520    -0.73880
O35         O  0.25032929  0.28955266  0.61704461    -0.73400
O36         O  0.14869453  0.19352389  0.47141044    -0.74080
O37         O  0.25022730  0.21283689  0.61747893    -0.73680
O38         O  0.18882909  0.34468196  0.53081201    -0.74260
O39         O  0.35093625  0.30760158  0.47016490    -0.73650
O40         O  0.20838546  0.25009028  0.38349002    -0.74410
O41         O  0.30840470  0.34462619  0.52925693    -0.73800
O42         O  0.29020076  0.25127081  0.38310428    -0.74270
O43         O  0.34992185  0.19315819  0.46841822    -0.74180
O44         O  0.31129158  0.15728080  0.53140666    -0.73960
C45         C  0.15455786  0.15946115  0.50153558     0.77830
C46         C  0.15332010  0.34190351  0.49957865     0.78320
C47         C  0.25038164  0.25128352  0.64088364     0.77280
C48         C  0.34550684  0.34182387  0.49999817     0.77650
C49         C  0.24916610  0.25073738  0.35966659     0.78790
C50         C  0.34635227  0.15976141  0.49965746     0.77840
C51         C  0.26283506  0.29047529  0.77701484    -0.20610
C52         C  0.24934960  0.25017633  0.80348583    -0.08660
C53         C  0.23617775  0.21034305  0.77591898     0.30200
C54         C  0.23683638  0.21102365  0.72322482    -0.20610
C55         C  0.25032545  0.25131353  0.69677329    -0.08670
C56         C  0.26344081  0.29116184  0.72430975     0.30210
F57         F  0.27781999  0.33060295  0.70051836    -0.19190
H58         H  0.27348499  0.32154228  0.79714039     0.18570
H59         H  0.22619965  0.17996269  0.70307654     0.18580
F60         F  0.22179982  0.17087078  0.79964826    -0.19260
C61         C  0.29258826  0.24024753  0.27716967    -0.20610
C62         C  0.24907267  0.25066248  0.30364493    -0.08660
C63         C  0.20601247  0.26080859  0.27597399     0.30200
C64         C  0.20673044  0.26034290  0.22322542    -0.20610
C65         C  0.25024337  0.24989153  0.19672197    -0.08670
C66         C  0.29330260  0.23971808  0.22442865     0.30210
F67         F  0.33609443  0.22859556  0.20081246    -0.19190
H68         H  0.32622299  0.23201628  0.29732114     0.18570
H69         H  0.17308255  0.26859381  0.20311115     0.18580
F70         F  0.16328292  0.27200986  0.29966427    -0.19180
C71         C  0.08286749  0.44687562  0.45545375    -0.20610
C72         C  0.05367551  0.45683642  0.49772692    -0.08660
C73         C  0.05577031  0.42749496  0.54004880     0.30200
C74         C  0.08769133  0.38934872  0.54024493    -0.20610
C75         C  0.11700382  0.37964051  0.49795300    -0.08670
C76         C  0.11399911  0.40832180  0.45528940     0.30210
F77         F  0.14310708  0.40040313  0.41456018    -0.19190
H78         H  0.08210999  0.46957882  0.42288081     0.18570
H79         H  0.09004090  0.36769507  0.57356763     0.18580
F80         F  0.02858482  0.43687473  0.58176177    -0.19180
C81         C  0.38154833  0.41161268  0.54098813    -0.20610
C82         C  0.38223516  0.37985021  0.50084618    -0.08660
C83         C  0.41635408  0.38651220  0.46136030     0.30200
C84         C  0.44753118  0.42523547  0.46143129    -0.20610
C85         C  0.44550740  0.45745367  0.50098204    -0.08670
C86         C  0.41277154  0.44994069  0.54112136     0.30210
F87         F  0.41070661  0.47999328  0.58039591    -0.19190
H88         H  0.35624007  0.40719423  0.57222627     0.18570
H89         H  0.47223395  0.43085025  0.42991980     0.18580
F90         F  0.41825447  0.35686761  0.42172779    -0.19180
C91         C  0.41439217  0.05311509  0.45712184    -0.20610
C92         C  0.44583545  0.04472548  0.49818322    -0.08660
C93         C  0.44590727  0.07568581  0.53910624     0.30200
C94         C  0.41401735  0.11386209  0.53912557    -0.20610
C95         C  0.38255152  0.12197277  0.49801996    -0.08670
C96         C  0.38329611  0.09166839  0.45673525     0.30210
F97         F  0.35216414  0.09812469  0.41722681    -0.19190
H98         H  0.41346546  0.02923945  0.42564307     0.18570
H99         H  0.41334280  0.13675895  0.57144997     0.18580
F100        F  0.47500198  0.06778901  0.57988117    -0.19180
C101        C  0.08499314  0.11497931  0.46214081    -0.20610
C102        C  0.11808279  0.12121029  0.50249089    -0.08660
C103        C  0.11773233  0.08897563  0.54250531     0.30200
C104        C  0.08630031  0.05080074  0.54111404    -0.20610
C105        C  0.05438866  0.04394228  0.50026921    -0.08670
C106        C  0.05357661  0.07646331  0.46079204     0.30210
F107        F  0.02410983  0.06991250  0.42004094    -0.19190
H108        H  0.08464456  0.13902015  0.43074243     0.18570
H109        H  0.08722809  0.02606558  0.57188339     0.18580
F110        F  0.14801513  0.09392359  0.58294158    -0.19180
C111        C  0.05246945  0.42478286  0.03685813    -0.20610
C112        C  0.05508064  0.45770796  0.99792294    -0.08660
C113        C  0.08909832  0.45127101  0.95866343     0.30200
C114        C  0.12070434  0.41320686  0.95897292    -0.20610
C115        C  0.11906160  0.38054830  0.99832614    -0.08670
C116        C  0.08387499  0.38626610  0.03699259     0.30210
F117        F  0.08090510  0.35573198  0.07585364    -0.19190
H118        H  0.02694827  0.42955882  0.06781879     0.18570
H119        H  0.14690680  0.40960296  0.92840893     0.18580
F120        F  0.09198816  0.48201158  0.91998817    -0.19180
C121        C  0.38753464  0.40580003  0.04463491    -0.20610
C122        C  0.38484334  0.37706634  0.00219388    -0.08660
C123        C  0.41442977  0.38675541  0.95997403     0.30200
C124        C  0.44573817  0.42537362  0.96006913    -0.20610
C125        C  0.44677258  0.45528283  0.00176450    -0.08670
C126        C  0.41775435  0.44501544  0.04423176     0.30210
F127        F  0.41798642  0.47354112  0.08489073    -0.19190
H128        H  0.36457973  0.39894134  0.07724451     0.18570
H129        H  0.46769323  0.43303792  0.92696904     0.18580
F130        F  0.41243927  0.35923487  0.91855808    -0.19180
C131        C  0.37881519  0.08696267  0.95908732    -0.20610
C132        C  0.38068928  0.11975403  0.99818964    -0.08660
C133        C  0.41608094  0.11416985  0.03673915     0.30200
C134        C  0.44746282  0.07565546  0.03675514    -0.20610
C135        C  0.44456362  0.04256023  0.99813419    -0.08670
C136        C  0.41036680  0.04886248  0.95896005     0.30210
F137        F  0.40730611  0.01796309  0.92054105    -0.19190
H138        H  0.35245574  0.09047564  0.92860849     0.18570
H139        H  0.47314923  0.07098115  0.06763726     0.18580
F140        F  0.41926575  0.14482519  0.07536774    -0.19180
C141        C  0.08637807  0.11328623  0.95987260    -0.20610
C142        C  0.11513575  0.12290786  0.00263342    -0.08660
C143        C  0.11162864  0.09406761  0.04511989     0.30200
C144        C  0.08108746  0.05508458  0.04405090    -0.20610
C145        C  0.05280407  0.04498206  0.00112743    -0.08670
C146        C  0.05477367  0.07489936  0.95929360     0.30210
F147        F  0.02802894  0.06570464  0.91719807    -0.19190
H148        H  0.08903890  0.13512683  0.92671852     0.18570
H149        H  0.08014039  0.03212864  0.07640867     0.18580
F150        F  0.13988705  0.10212772  0.08647008    -0.19180
C151        C  0.02490416  0.00068704  0.99940982     0.01260
C152        C  0.47469716  0.49957568  0.99984560     0.01260
C153        C  0.02492761  0.50063670  0.49850646     0.01260
C154        C  0.47473722  0.50095814  0.49926407     0.01260
Zn155      Zn  0.24780548  0.69552389  0.95689212     1.49720
Zn156      Zn  0.19081928  0.75102288  0.04331512     1.49360
Zn157      Zn  0.30902478  0.74909578  0.04307775     1.49110
Zn158      Zn  0.25181485  0.80475768  0.95671057     1.49480
O159        O  0.24984409  0.75012048  0.00025373    -1.83430
O160        O  0.18718126  0.65722787  0.96975598    -0.74060
O161        O  0.20924397  0.75203334  0.11713378    -0.73880
O162        O  0.35009712  0.69210729  0.02888092    -0.73400
O163        O  0.14878047  0.69374539  0.03229158    -0.74080
O164        O  0.30689103  0.65550743  0.96992997    -0.73680
O165        O  0.29091451  0.74786938  0.11687249    -0.74260
O166        O  0.31268708  0.84291561  0.96929586    -0.73650
O167        O  0.14970774  0.80812002  0.02911790    -0.74410
O168        O  0.35108866  0.80628716  0.03192357    -0.73800
O169        O  0.19280901  0.84480120  0.97003522    -0.74270
O170        O  0.25130639  0.78848631  0.88291499    -0.74180
O171        O  0.24777467  0.71184693  0.88316047    -0.73960
C172        C  0.15199235  0.66021502  0.00127945     0.77830
C173        C  0.25017494  0.74987373  0.14065847     0.78320
C174        C  0.34420009  0.65798088  0.99903146     0.77280
C175        C  0.34794722  0.83980724  0.00078953     0.77650
C176        C  0.15556908  0.84230733  0.99921221     0.78790
C177        C  0.24939971  0.75012783  0.85940249     0.77840
Zn178      Zn  0.25109202  0.69639792  0.54378313     1.49720
Zn179      Zn  0.19042142  0.75054014  0.45738035     1.49360
Zn180      Zn  0.24907737  0.80553443  0.54319838     1.49110
Zn181      Zn  0.30883006  0.75081145  0.45683033     1.49480
O182        O  0.24984204  0.75082626  0.49998418    -1.83430
O183        O  0.19191169  0.65698139  0.53049478    -0.74060
O184        O  0.14932621  0.80819409  0.46889569    -0.73880
O185        O  0.25032903  0.78954880  0.61704245    -0.73400
O186        O  0.14869219  0.69352470  0.47141041    -0.74080
O187        O  0.25022756  0.71283307  0.61747507    -0.73680
O188        O  0.18882963  0.84468132  0.53081214    -0.74260
O189        O  0.35093399  0.80760266  0.47015981    -0.73650
O190        O  0.20837968  0.75008949  0.38348800    -0.74410
O191        O  0.30840523  0.84462402  0.52925634    -0.73800
O192        O  0.29019494  0.75127083  0.38309986    -0.74270
O193        O  0.34992076  0.69315896  0.46841191    -0.74180
O194        O  0.31129232  0.65728071  0.53140096    -0.73960
C195        C  0.15455721  0.65946063  0.50153335     0.77830
C196        C  0.15332000  0.84190369  0.49957948     0.78320
C197        C  0.25038156  0.75127921  0.64088063     0.77280
C198        C  0.34550616  0.84182327  0.49999576     0.77650
C199        C  0.24915958  0.75073643  0.35966330     0.78790
C200        C  0.34635244  0.65976204  0.49965119     0.77840
C201        C  0.26283372  0.79046971  0.77701199    -0.20610
C202        C  0.24934929  0.75017029  0.80348264    -0.08660
C203        C  0.23617867  0.71033681  0.77591562     0.30200
C204        C  0.23683725  0.71101783  0.72322138    -0.20610
C205        C  0.25032530  0.75130832  0.69677024    -0.08670
C206        C  0.26343965  0.79115666  0.72430705     0.30210
F207        F  0.27781816  0.83059824  0.70051616    -0.19190
H208        H  0.27348306  0.82153679  0.79713773     0.18570
H209        H  0.22620144  0.67995679  0.70307277     0.18580
F210        F  0.22180215  0.67086407  0.79964486    -0.19260
C211        C  0.29258143  0.74024981  0.27716602    -0.20610
C212        C  0.24906475  0.75065998  0.30364149    -0.08660
C213        C  0.20600271  0.76079981  0.27597054     0.30200
C214        C  0.20672062  0.76033419  0.22322175    -0.20610
C215        C  0.25023522  0.74988893  0.19671828    -0.08670
C216        C  0.29329567  0.73972021  0.22442515     0.30210
F217        F  0.33608912  0.72860266  0.20080924    -0.19190
H218        H  0.32621749  0.73202284  0.29731723     0.18570
H219        H  0.17307158  0.76858067  0.20310735     0.18580
F220        F  0.16327137  0.77199487  0.29966095    -0.19180
C221        C  0.08286787  0.94687671  0.45545663    -0.20610
C222        C  0.05367605  0.95683702  0.49773004    -0.08660
C223        C  0.05577117  0.92749525  0.54005165     0.30200
C224        C  0.08769219  0.88934903  0.54024719    -0.20610
C225        C  0.11700432  0.87964117  0.49795491    -0.08670
C226        C  0.11399947  0.90832291  0.45529170     0.30210
F227        F  0.14310715  0.90040455  0.41456219    -0.19190
H228        H  0.08211012  0.96958017  0.42288392     0.18570
H229        H  0.09004187  0.86769500  0.57356959     0.18580
F230        F  0.02858583  0.93687463  0.58176485    -0.19180
C231        C  0.38154798  0.91161090  0.54098817    -0.20610
C232        C  0.38223488  0.87984947  0.50084519    -0.08660
C233        C  0.41635445  0.88651229  0.46136003     0.30200
C234        C  0.44753191  0.92523541  0.46143266    -0.20610
C235        C  0.44550786  0.95745270  0.50098434    -0.08670
C236        C  0.41277147  0.94993875  0.54112300     0.30210
F237        F  0.41070611  0.97999040  0.58039838    -0.19190
H238        H  0.35623935  0.90719188  0.57222589     0.18570
H239        H  0.47223505  0.93085088  0.42992163     0.18580
F240        F  0.41825525  0.85686864  0.42172671    -0.19180
C241        C  0.41439341  0.55311591  0.45711655    -0.20610
C242        C  0.44583596  0.54472634  0.49817856    -0.08660
C243        C  0.44590754  0.57568710  0.53910117     0.30200
C244        C  0.41401787  0.61386355  0.53911967    -0.20610
C245        C  0.38255258  0.62197410  0.49801357    -0.08670
C246        C  0.38329765  0.59166945  0.45672910     0.30210
F247        F  0.35216615  0.59812553  0.41722023    -0.19190
H248        H  0.41346693  0.52923996  0.42563806     0.18570
H249        H  0.41334286  0.63676053  0.57144397     0.18580
F250        F  0.47500162  0.56779047  0.57987661    -0.19180
C251        C  0.08499306  0.61497899  0.46213807    -0.20610
C252        C  0.11808239  0.62120981  0.50248840    -0.08660
C253        C  0.11773207  0.58897494  0.54250256     0.30200
C254        C  0.08630030  0.55079993  0.54111085    -0.20610
C255        C  0.05438895  0.54394165  0.50026575    -0.08670
C256        C  0.05357692  0.57646283  0.46078876     0.30210
F257        F  0.02411046  0.56991210  0.42003741    -0.19190
H258        H  0.08464456  0.63902002  0.43073987     0.18570
H259        H  0.08722794  0.52606466  0.57188008     0.18580
F260        F  0.14801464  0.59392295  0.58293901    -0.19180
C261        C  0.05245528  0.92477365  0.03683081    -0.20610
C262        C  0.05509050  0.95771760  0.99791542    -0.08660
C263        C  0.08913865  0.95130010  0.95867871     0.30200
C264        C  0.12074494  0.91323616  0.95898988    -0.20610
C265        C  0.11907305  0.88055627  0.99832072    -0.08670
C266        C  0.08385949  0.88625565  0.03696471     0.30210
F267        F  0.08085801  0.85569956  0.07580272    -0.19190
H268        H  0.02691448  0.92953386  0.06777719     0.18570
H269        H  0.14696923  0.90964840  0.92844322     0.18580
F270        F  0.09205727  0.98205707  0.92002156    -0.19180
C271        C  0.38757822  0.90577185  0.04463682    -0.20610
C272        C  0.38485201  0.87706173  0.00217895    -0.08660
C273        C  0.41440496  0.88677406  0.95994044     0.30200
C274        C  0.44571395  0.92539174  0.96003467    -0.20610
C275        C  0.44677835  0.95527965  0.00174680    -0.08670
C276        C  0.41779513  0.94498913  0.04423214     0.30210
F277        F  0.41805877  0.97349420  0.08490805    -0.19190
H278        H  0.36464999  0.89889527  0.07726161     0.18570
H279        H  0.46764436  0.93307345  0.92692219     0.18580
F280        F  0.41238167  0.85927640  0.91850806    -0.19180
C281        C  0.37881996  0.58696384  0.95909899    -0.20610
C282        C  0.38070227  0.61976233  0.99819381    -0.08660
C283        C  0.41610077  0.61418423  0.03673796     0.30200
C284        C  0.44748002  0.57566774  0.03675733    -0.20610
C285        C  0.44456977  0.54256416  0.99814563    -0.08670
C286        C  0.41036758  0.54886127  0.95897574     0.30210
F287        F  0.40729751  0.51795373  0.92056514    -0.19190
H288        H  0.35245571  0.59047188  0.92862385     0.18570
H289        H  0.47317265  0.57099827  0.06763498     0.18580
F290        F  0.41929505  0.64484764  0.07535815    -0.19180
C291        C  0.08635306  0.61330082  0.95989674    -0.20610
C292        C  0.11515512  0.62289255  0.00263416    -0.08660
C293        C  0.11169735  0.59401959  0.04509808     0.30200
C294        C  0.08115003  0.55504101  0.04403312    -0.20610
C295        C  0.05281681  0.54497055  0.00113466    -0.08670
C296        C  0.05474871  0.57491343  0.95932006     0.30210
F297        F  0.02796447  0.56574569  0.91724385    -0.19190
H298        H  0.08897936  0.63516488  0.92675811     0.18570
H299        H  0.08023631  0.53206378  0.07637400     0.18580
F300        F  0.14000548  0.60204672  0.08642042    -0.19180
C301        C  0.52490450  0.50068169  0.99941949     0.01260
C302        C  0.97469683  0.99957486  0.99983065     0.01260
C303        C  0.52492769  0.00063695  0.49850999     0.01260
C304        C  0.97473726  0.00095763  0.49926766     0.01260
Zn305      Zn  0.74779568  0.19552656  0.95689365     1.49720
Zn306      Zn  0.69082029  0.25102449  0.04332379     1.49360
Zn307      Zn  0.80902409  0.24909231  0.04307715     1.49110
Zn308      Zn  0.75180959  0.30476098  0.95671601     1.49480
O309        O  0.74984096  0.25012173  0.00025708    -1.83430
O310        O  0.68716323  0.15724035  0.96975317    -0.74060
O311        O  0.70924963  0.25203671  0.11713978    -0.73880
O312        O  0.85009028  0.19210120  0.02887536    -0.73400
O313        O  0.64877806  0.19374955  0.03230422    -0.74080
O314        O  0.80687654  0.15550105  0.96993011    -0.73680
O315        O  0.79091965  0.24786609  0.11687421    -0.74260
O316        O  0.81267662  0.34292429  0.96931082    -0.73650
O317        O  0.64970705  0.30811942  0.02912862    -0.74410
O318        O  0.85108930  0.30628290  0.03192285    -0.73800
O319        O  0.69279811  0.34479842  0.97003633    -0.74270
O320        O  0.75130828  0.28849197  0.88291900    -0.74180
O321        O  0.74776902  0.21185287  0.88316322    -0.73960
C322        C  0.65197968  0.16022524  0.00128338     0.77830
C323        C  0.75018145  0.24987450  0.14066230     0.78320
C324        C  0.84418820  0.15797359  0.99902845     0.77280
C325        C  0.84794113  0.33981021  0.00079880     0.77650
C326        C  0.65556170  0.34230377  0.99921784     0.78790
C327        C  0.74939887  0.25013387  0.85940582     0.77840
Zn328      Zn  0.75109178  0.19639946  0.54378748     1.49720
Zn329      Zn  0.69042390  0.25053990  0.45738149     1.49360
Zn330      Zn  0.74907739  0.30553621  0.54319989     1.49110
Zn331      Zn  0.80883250  0.25081090  0.45683531     1.49480
O332        O  0.74984312  0.25082687  0.49998725    -1.83430
O333        O  0.69191085  0.15698331  0.53049921    -0.74060
O334        O  0.64932748  0.30819351  0.46889520    -0.73880
O335        O  0.75032929  0.28955266  0.61704461    -0.73400
O336        O  0.64869454  0.19352389  0.47141044    -0.74080
O337        O  0.75022730  0.21283689  0.61747893    -0.73680
O338        O  0.68882909  0.34468196  0.53081201    -0.74260
O339        O  0.85093625  0.30760158  0.47016491    -0.73650
O340        O  0.70838546  0.25009028  0.38349002    -0.74410
O341        O  0.80840470  0.34462619  0.52925694    -0.73800
O342        O  0.79020076  0.25127081  0.38310428    -0.74270
O343        O  0.84992185  0.19315819  0.46841822    -0.74180
O344        O  0.81129157  0.15728080  0.53140667    -0.73960
C345        C  0.65455786  0.15946115  0.50153558     0.77830
C346        C  0.65332010  0.34190351  0.49957865     0.78320
C347        C  0.75038164  0.25128352  0.64088365     0.77280
C348        C  0.84550684  0.34182387  0.49999817     0.77650
C349        C  0.74916610  0.25073738  0.35966659     0.78790
C350        C  0.84635227  0.15976141  0.49965746     0.77840
C351        C  0.76283506  0.29047529  0.77701484    -0.20610
C352        C  0.74934960  0.25017634  0.80348584    -0.08660
C353        C  0.73617775  0.21034305  0.77591898     0.30200
C354        C  0.73683638  0.21102365  0.72322482    -0.20610
C355        C  0.75032545  0.25131353  0.69677330    -0.08670
C356        C  0.76344081  0.29116184  0.72430976     0.30210
F357        F  0.77781999  0.33060295  0.70051836    -0.19190
H358        H  0.77348499  0.32154228  0.79714040     0.18570
H359        H  0.72619965  0.17996269  0.70307655     0.18580
F360        F  0.72179982  0.17087078  0.79964827    -0.19260
C361        C  0.79258826  0.24024753  0.27716967    -0.20610
C362        C  0.74907267  0.25066248  0.30364493    -0.08660
C363        C  0.70601247  0.26080859  0.27597399     0.30200
C364        C  0.70673044  0.26034290  0.22322542    -0.20610
C365        C  0.75024337  0.24989153  0.19672197    -0.08670
C366        C  0.79330260  0.23971808  0.22442866     0.30210
F367        F  0.83609443  0.22859556  0.20081246    -0.19190
H368        H  0.82622299  0.23201628  0.29732114     0.18570
H369        H  0.67308255  0.26859381  0.20311115     0.18580
F370        F  0.66328292  0.27200987  0.29966427    -0.19180
C371        C  0.58286749  0.44687562  0.45545375    -0.20610
C372        C  0.55367551  0.45683642  0.49772692    -0.08660
C373        C  0.55577031  0.42749496  0.54004880     0.30200
C374        C  0.58769133  0.38934872  0.54024493    -0.20610
C375        C  0.61700382  0.37964051  0.49795300    -0.08670
C376        C  0.61399911  0.40832180  0.45528940     0.30210
F377        F  0.64310708  0.40040313  0.41456019    -0.19190
H378        H  0.58210999  0.46957883  0.42288081     0.18570
H379        H  0.59004090  0.36769507  0.57356763     0.18580
F380        F  0.52858481  0.43687472  0.58176177    -0.19180
C381        C  0.88154833  0.41161268  0.54098813    -0.20610
C382        C  0.88223516  0.37985021  0.50084618    -0.08660
C383        C  0.91635408  0.38651220  0.46136030     0.30200
C384        C  0.94753118  0.42523547  0.46143129    -0.20610
C385        C  0.94550740  0.45745367  0.50098204    -0.08670
C386        C  0.91277154  0.44994069  0.54112136     0.30210
F387        F  0.91070661  0.47999328  0.58039591    -0.19190
H388        H  0.85624007  0.40719423  0.57222627     0.18570
H389        H  0.97223395  0.43085025  0.42991980     0.18580
F390        F  0.91825447  0.35686761  0.42172779    -0.19180
C391        C  0.91439217  0.05311509  0.45712184    -0.20610
C392        C  0.94583544  0.04472548  0.49818323    -0.08660
C393        C  0.94590727  0.07568581  0.53910624     0.30200
C394        C  0.91401735  0.11386209  0.53912557    -0.20610
C395        C  0.88255152  0.12197277  0.49801996    -0.08670
C396        C  0.88329611  0.09166838  0.45673526     0.30210
F397        F  0.85216414  0.09812468  0.41722682    -0.19190
H398        H  0.91346546  0.02923944  0.42564308     0.18570
H399        H  0.91334280  0.13675895  0.57144997     0.18580
F400        F  0.97500198  0.06778902  0.57988117    -0.19180
C401        C  0.58499314  0.11497931  0.46214081    -0.20610
C402        C  0.61808279  0.12121029  0.50249089    -0.08660
C403        C  0.61773232  0.08897563  0.54250531     0.30200
C404        C  0.58630031  0.05080074  0.54111404    -0.20610
C405        C  0.55438866  0.04394228  0.50026921    -0.08670
C406        C  0.55357662  0.07646331  0.46079203     0.30210
F407        F  0.52410983  0.06991250  0.42004094    -0.19190
H408        H  0.58464457  0.13902015  0.43074243     0.18570
H409        H  0.58722809  0.02606558  0.57188339     0.18580
F410        F  0.64801513  0.09392359  0.58294159    -0.19180
C411        C  0.55246945  0.42478286  0.03685813    -0.20610
C412        C  0.55508064  0.45770796  0.99792294    -0.08660
C413        C  0.58909832  0.45127101  0.95866343     0.30200
C414        C  0.62070434  0.41320686  0.95897292    -0.20610
C415        C  0.61906160  0.38054830  0.99832614    -0.08670
C416        C  0.58387499  0.38626610  0.03699259     0.30210
F417        F  0.58090510  0.35573198  0.07585364    -0.19190
H418        H  0.52694827  0.42955882  0.06781879     0.18570
H419        H  0.64690680  0.40960296  0.92840893     0.18580
F420        F  0.59198816  0.48201158  0.91998817    -0.19180
C421        C  0.88753465  0.40580003  0.04463491    -0.20610
C422        C  0.88484334  0.37706634  0.00219388    -0.08660
C423        C  0.91442977  0.38675541  0.95997403     0.30200
C424        C  0.94573817  0.42537362  0.96006913    -0.20610
C425        C  0.94677258  0.45528283  0.00176450    -0.08670
C426        C  0.91775435  0.44501544  0.04423176     0.30210
F427        F  0.91798642  0.47354112  0.08489074    -0.19190
H428        H  0.86457974  0.39894134  0.07724452     0.18570
H429        H  0.96769323  0.43303792  0.92696904     0.18580
F430        F  0.91243927  0.35923487  0.91855808    -0.19180
C431        C  0.87881519  0.08696267  0.95908733    -0.20610
C432        C  0.88068928  0.11975403  0.99818965    -0.08660
C433        C  0.91608094  0.11416985  0.03673915     0.30200
C434        C  0.94746282  0.07565546  0.03675514    -0.20610
C435        C  0.94456362  0.04256023  0.99813419    -0.08670
C436        C  0.91036680  0.04886248  0.95896005     0.30210
F437        F  0.90730611  0.01796309  0.92054105    -0.19190
H438        H  0.85245574  0.09047564  0.92860849     0.18570
H439        H  0.97314923  0.07098115  0.06763726     0.18580
F440        F  0.91926575  0.14482519  0.07536774    -0.19180
C441        C  0.58637807  0.11328623  0.95987260    -0.20610
C442        C  0.61513575  0.12290786  0.00263342    -0.08660
C443        C  0.61162864  0.09406761  0.04511990     0.30200
C444        C  0.58108746  0.05508458  0.04405090    -0.20610
C445        C  0.55280407  0.04498206  0.00112743    -0.08670
C446        C  0.55477367  0.07489936  0.95929360     0.30210
F447        F  0.52802894  0.06570464  0.91719807    -0.19190
H448        H  0.58903890  0.13512683  0.92671852     0.18570
H449        H  0.58014039  0.03212864  0.07640867     0.18580
F450        F  0.63988704  0.10212772  0.08647008    -0.19180
C451        C  0.52490417  0.00068704  0.99940982     0.01260
C452        C  0.97469716  0.49957568  0.99984560     0.01260
C453        C  0.52492761  0.50063670  0.49850646     0.01260
C454        C  0.97473722  0.50095814  0.49926407     0.01260
Zn455      Zn  0.74780548  0.69552389  0.95689212     1.49720
Zn456      Zn  0.69081928  0.75102288  0.04331512     1.49360
Zn457      Zn  0.80902478  0.74909578  0.04307775     1.49110
Zn458      Zn  0.75181485  0.80475768  0.95671057     1.49480
O459        O  0.74984409  0.75012048  0.00025373    -1.83430
O460        O  0.68718126  0.65722787  0.96975598    -0.74060
O461        O  0.70924397  0.75203334  0.11713378    -0.73880
O462        O  0.85009712  0.69210729  0.02888092    -0.73400
O463        O  0.64878047  0.69374539  0.03229158    -0.74080
O464        O  0.80689103  0.65550743  0.96992997    -0.73680
O465        O  0.79091451  0.74786938  0.11687249    -0.74260
O466        O  0.81268708  0.84291561  0.96929586    -0.73650
O467        O  0.64970774  0.80812002  0.02911790    -0.74410
O468        O  0.85108866  0.80628716  0.03192357    -0.73800
O469        O  0.69280901  0.84480120  0.97003522    -0.74270
O470        O  0.75130639  0.78848631  0.88291499    -0.74180
O471        O  0.74777467  0.71184693  0.88316047    -0.73960
C472        C  0.65199234  0.66021502  0.00127945     0.77830
C473        C  0.75017494  0.74987373  0.14065847     0.78320
C474        C  0.84420009  0.65798088  0.99903146     0.77280
C475        C  0.84794722  0.83980724  0.00078953     0.77650
C476        C  0.65556908  0.84230733  0.99921221     0.78790
C477        C  0.74939971  0.75012783  0.85940250     0.77840
Zn478      Zn  0.75109202  0.69639792  0.54378313     1.49720
Zn479      Zn  0.69042142  0.75054014  0.45738035     1.49360
Zn480      Zn  0.74907737  0.80553443  0.54319838     1.49110
Zn481      Zn  0.80883006  0.75081145  0.45683033     1.49480
O482        O  0.74984204  0.75082626  0.49998418    -1.83430
O483        O  0.69191168  0.65698139  0.53049478    -0.74060
O484        O  0.64932621  0.80819409  0.46889569    -0.73880
O485        O  0.75032903  0.78954880  0.61704245    -0.73400
O486        O  0.64869219  0.69352470  0.47141041    -0.74080
O487        O  0.75022756  0.71283307  0.61747507    -0.73680
O488        O  0.68882963  0.84468132  0.53081214    -0.74260
O489        O  0.85093399  0.80760266  0.47015982    -0.73650
O490        O  0.70837968  0.75008949  0.38348800    -0.74410
O491        O  0.80840523  0.84462402  0.52925634    -0.73800
O492        O  0.79019494  0.75127083  0.38309987    -0.74270
O493        O  0.84992076  0.69315896  0.46841191    -0.74180
O494        O  0.81129232  0.65728070  0.53140096    -0.73960
C495        C  0.65455721  0.65946063  0.50153335     0.77830
C496        C  0.65332000  0.84190369  0.49957948     0.78320
C497        C  0.75038156  0.75127921  0.64088063     0.77280
C498        C  0.84550616  0.84182327  0.49999576     0.77650
C499        C  0.74915958  0.75073643  0.35966330     0.78790
C500        C  0.84635244  0.65976204  0.49965119     0.77840
C501        C  0.76283372  0.79046971  0.77701199    -0.20610
C502        C  0.74934930  0.75017029  0.80348264    -0.08660
C503        C  0.73617867  0.71033681  0.77591562     0.30200
C504        C  0.73683725  0.71101783  0.72322138    -0.20610
C505        C  0.75032530  0.75130832  0.69677024    -0.08670
C506        C  0.76343965  0.79115666  0.72430706     0.30210
F507        F  0.77781815  0.83059824  0.70051616    -0.19190
H508        H  0.77348305  0.82153679  0.79713773     0.18570
H509        H  0.72620144  0.67995679  0.70307277     0.18580
F510        F  0.72180215  0.67086407  0.79964486    -0.19260
C511        C  0.79258143  0.74024980  0.27716602    -0.20610
C512        C  0.74906475  0.75065998  0.30364149    -0.08660
C513        C  0.70600271  0.76079982  0.27597054     0.30200
C514        C  0.70672062  0.76033420  0.22322175    -0.20610
C515        C  0.75023522  0.74988893  0.19671829    -0.08670
C516        C  0.79329567  0.73972021  0.22442515     0.30210
F517        F  0.83608912  0.72860265  0.20080924    -0.19190
H518        H  0.82621749  0.73202283  0.29731723     0.18570
H519        H  0.67307158  0.76858067  0.20310735     0.18580
F520        F  0.66327137  0.77199488  0.29966095    -0.19180
C521        C  0.58286787  0.94687671  0.45545663    -0.20610
C522        C  0.55367605  0.95683702  0.49773004    -0.08660
C523        C  0.55577116  0.92749525  0.54005165     0.30200
C524        C  0.58769218  0.88934903  0.54024719    -0.20610
C525        C  0.61700432  0.87964117  0.49795491    -0.08670
C526        C  0.61399948  0.90832292  0.45529169     0.30210
F527        F  0.64310715  0.90040455  0.41456219    -0.19190
H528        H  0.58211013  0.96958017  0.42288392     0.18570
H529        H  0.59004187  0.86769500  0.57356958     0.18580
F530        F  0.52858583  0.93687463  0.58176484    -0.19180
C531        C  0.88154799  0.91161090  0.54098817    -0.20610
C532        C  0.88223488  0.87984947  0.50084519    -0.08660
C533        C  0.91635444  0.88651229  0.46136003     0.30200
C534        C  0.94753190  0.92523541  0.46143267    -0.20610
C535        C  0.94550786  0.95745269  0.50098434    -0.08670
C536        C  0.91277147  0.94993874  0.54112301     0.30210
F537        F  0.91070612  0.97999039  0.58039839    -0.19190
H538        H  0.85623936  0.90719188  0.57222590     0.18570
H539        H  0.97223505  0.93085088  0.42992164     0.18580
F540        F  0.91825525  0.85686864  0.42172671    -0.19180
C541        C  0.91439341  0.55311590  0.45711656    -0.20610
C542        C  0.94583596  0.54472634  0.49817856    -0.08660
C543        C  0.94590754  0.57568710  0.53910117     0.30200
C544        C  0.91401787  0.61386355  0.53911967    -0.20610
C545        C  0.88255258  0.62197410  0.49801357    -0.08670
C546        C  0.88329765  0.59166945  0.45672910     0.30210
F547        F  0.85216615  0.59812553  0.41722023    -0.19190
H548        H  0.91346693  0.52923996  0.42563806     0.18570
H549        H  0.91334286  0.63676053  0.57144397     0.18580
F550        F  0.97500162  0.56779047  0.57987661    -0.19180
C551        C  0.58499306  0.61497899  0.46213807    -0.20610
C552        C  0.61808238  0.62120981  0.50248840    -0.08660
C553        C  0.61773207  0.58897494  0.54250256     0.30200
C554        C  0.58630030  0.55079993  0.54111085    -0.20610
C555        C  0.55438895  0.54394165  0.50026575    -0.08670
C556        C  0.55357692  0.57646283  0.46078876     0.30210
F557        F  0.52411046  0.56991210  0.42003741    -0.19190
H558        H  0.58464457  0.63902002  0.43073987     0.18570
H559        H  0.58722794  0.52606466  0.57188008     0.18580
F560        F  0.64801464  0.59392295  0.58293901    -0.19180
C561        C  0.55245528  0.92477365  0.03683081    -0.20610
C562        C  0.55509050  0.95771760  0.99791542    -0.08660
C563        C  0.58913865  0.95130010  0.95867871     0.30200
C564        C  0.62074495  0.91323616  0.95898989    -0.20610
C565        C  0.61907305  0.88055627  0.99832072    -0.08670
C566        C  0.58385949  0.88625565  0.03696471     0.30210
F567        F  0.58085801  0.85569956  0.07580272    -0.19190
H568        H  0.52691447  0.92953386  0.06777719     0.18570
H569        H  0.64696923  0.90964840  0.92844322     0.18580
F570        F  0.59205728  0.98205708  0.92002156    -0.19180
C571        C  0.88757822  0.90577185  0.04463682    -0.20610
C572        C  0.88485201  0.87706173  0.00217895    -0.08660
C573        C  0.91440496  0.88677406  0.95994044     0.30200
C574        C  0.94571395  0.92539174  0.96003467    -0.20610
C575        C  0.94677835  0.95527965  0.00174680    -0.08670
C576        C  0.91779512  0.94498913  0.04423214     0.30210
F577        F  0.91805877  0.97349420  0.08490805    -0.19190
H578        H  0.86464999  0.89889527  0.07726161     0.18570
H579        H  0.96764436  0.93307344  0.92692219     0.18580
F580        F  0.91238167  0.85927640  0.91850807    -0.19180
C581        C  0.87881996  0.58696384  0.95909899    -0.20610
C582        C  0.88070227  0.61976233  0.99819381    -0.08660
C583        C  0.91610077  0.61418423  0.03673796     0.30200
C584        C  0.94748002  0.57566774  0.03675733    -0.20610
C585        C  0.94456977  0.54256416  0.99814563    -0.08670
C586        C  0.91036758  0.54886127  0.95897574     0.30210
F587        F  0.90729751  0.51795373  0.92056514    -0.19190
H588        H  0.85245571  0.59047188  0.92862385     0.18570
H589        H  0.97317265  0.57099827  0.06763498     0.18580
F590        F  0.91929505  0.64484764  0.07535815    -0.19180
C591        C  0.58635306  0.61330082  0.95989674    -0.20610
C592        C  0.61515512  0.62289255  0.00263416    -0.08660
C593        C  0.61169735  0.59401959  0.04509808     0.30200
C594        C  0.58115003  0.55504101  0.04403312    -0.20610
C595        C  0.55281681  0.54497055  0.00113466    -0.08670
C596        C  0.55474871  0.57491343  0.95932006     0.30210
F597        F  0.52796447  0.56574569  0.91724385    -0.19190
H598        H  0.58897936  0.63516488  0.92675812     0.18570
H599        H  0.58023631  0.53206378  0.07637400     0.18580
F600        F  0.64000548  0.60204672  0.08642042    -0.19180
loop_ 
_geom_bond_atom_site_label_1 
_geom_bond_atom_site_label_2 
_geom_bond_distance 
_geom_bond_site_symmetry_2 
_ccdc_geom_bond_type 
C1          C112   1.487       .  S
C1          C295   1.486   1_556  S
C1          C452   1.361   1_455  D
C2          C135   1.486   1_565  S
C2          C275   1.486   1_556  S
C2          C451   1.361   1_565  D
C3          C105   1.484       .  S
C3          C222   1.485   1_545  S
C3          C304   1.361   1_455  D
C4           C92   1.487       .  S
C4          C235   1.485   1_545  S
C4          C303   1.361       .  D
Zn5           O9   1.953   1_556  S
Zn5          O10   2.009       .  S
Zn5          O14   2.005       .  S
Zn5          O21   2.010       .  S
Zn6           O9   1.966       .  S
Zn6          O11   2.020       .  S
Zn6          O13   2.029       .  S
Zn6          O17   2.024       .  S
Zn7           O9   1.965       .  S
Zn7          O12   2.022       .  S
Zn7          O15   2.018       .  S
Zn7          O18   2.027       .  S
Zn8           O9   1.954   1_556  S
Zn8          O16   2.011       .  S
Zn8          O19   2.006       .  S
Zn8          O20   2.013       .  S
O10          C22   1.272   1_556  A
O11          C23   1.274       .  A
O12          C24   1.274   1_554  A
O13          C22   1.274       .  A
O14          C24   1.274       .  A
O15          C23   1.273       .  A
O16          C25   1.272   1_556  A
O17          C26   1.275   1_554  A
O18          C25   1.274       .  A
O19          C26   1.274       .  A
O20          C27   1.272       .  A
O21          C27   1.272       .  A
C22         C142   1.469       .  S
C23          C65   1.486       .  S
C24         C132   1.482       .  S
C25         C122   1.469       .  S
C26         C115   1.483       .  S
C27          C52   1.483       .  S
Zn28         O32   1.952       .  S
Zn28         O33   1.998       .  S
Zn28         O37   2.012       .  S
Zn28         O44   2.012       .  S
Zn29         O32   1.967       .  S
Zn29         O34   2.026       .  S
Zn29         O36   2.030       .  S
Zn29         O40   2.019       .  S
Zn30         O32   1.952       .  S
Zn30         O35   2.011       .  S
Zn30         O38   2.013       .  S
Zn30         O41   1.998       .  S
Zn31         O32   1.967       .  S
Zn31         O39   2.028       .  S
Zn31         O42   2.019       .  S
Zn31         O43   2.026       .  S
O33          C45   1.273       .  A
O34          C46   1.274       .  A
O35          C47   1.272       .  A
O36          C45   1.276       .  A
O37          C47   1.272       .  A
O38          C46   1.272       .  A
O39          C48   1.275       .  A
O40          C49   1.274       .  A
O41          C48   1.273       .  A
O42          C49   1.274       .  A
O43          C50   1.274       .  A
O44          C50   1.272       .  A
C45         C102   1.482       .  S
C46          C75   1.469       .  S
C47          C55   1.482       .  S
C48          C82   1.482       .  S
C49          C62   1.485       .  S
C50          C95   1.468       .  S
C51          C52   1.406       .  A
C51          C56   1.398       .  A
C51          H58   1.083       .  S
C52          C53   1.409       .  A
C53          C54   1.397       .  A
C53          F60   1.358       .  S
C54          C55   1.405       .  A
C54          H59   1.083       .  S
C55          C56   1.409       .  A
C56          F57   1.358       .  S
C61          C62   1.406       .  A
C61          C66   1.399       .  A
C61          H68   1.083       .  S
C62          C63   1.409       .  A
C63          C64   1.399       .  A
C63          F70   1.357       .  S
C64          C65   1.406       .  A
C64          H69   1.083       .  S
C65          C66   1.410       .  A
C66          F67   1.357       .  S
C71          C72   1.403       .  A
C71          C76   1.397       .  A
C71          H78   1.083       .  S
C72         C153   1.485       .  S
C72          C73   1.406       .  A
C73          C74   1.401       .  A
C73          F80   1.357       .  S
C74          C75   1.403       .  A
C74          H79   1.083       .  S
C75          C76   1.403       .  A
C76          F77   1.358       .  S
C81          C82   1.406       .  A
C81          C86   1.393       .  A
C81          H88   1.083       .  S
C82          C83   1.410       .  A
C83          C84   1.401       .  A
C83          F90   1.357       .  S
C84          C85   1.404       .  A
C84          H89   1.083       .  S
C85         C154   1.485       .  S
C85          C86   1.403       .  A
C86          F87   1.357       .  S
C91          C92   1.403       .  A
C91          C96   1.396       .  A
C91          H98   1.083       .  S
C92          C93   1.407       .  A
C93          C94   1.401       .  A
C93         F100   1.357       .  S
C94          C95   1.403       .  A
C94          H99   1.083       .  S
C95          C96   1.402       .  A
C96          F97   1.358       .  S
C101        C102   1.408       .  A
C101        C106   1.400       .  A
C101        H108   1.083       .  S
C102        C103   1.410       .  A
C103        C104   1.393       .  A
C103        F110   1.358       .  S
C104        C105   1.400       .  A
C104        H109   1.083       .  S
C105        C106   1.405       .  A
C106        F107   1.357       .  S
C111        C112   1.404   1_554  A
C111        C116   1.400       .  A
C111        H118   1.083       .  S
C112        C113   1.404       .  A
C113        C114   1.393       .  A
C113        F120   1.357       .  S
C114        C115   1.406       .  A
C114        H119   1.083       .  S
C115        C116   1.411   1_556  A
C116        F117   1.357       .  S
C121        C122   1.401       .  A
C121        C126   1.397       .  A
C121        H128   1.083       .  S
C122        C123   1.405   1_554  A
C123        C124   1.401       .  A
C123        F130   1.357       .  S
C124        C125   1.404   1_556  A
C124        H129   1.083       .  S
C125        C152   1.486   1_554  S
C125        C126   1.405       .  A
C126        F127   1.357       .  S
C131        C132   1.406       .  A
C131        C136   1.393       .  A
C131        H138   1.083       .  S
C132        C133   1.411   1_556  A
C133        C134   1.400       .  A
C133        F140   1.357       .  S
C134        C135   1.404   1_554  A
C134        H139   1.083       .  S
C135        C136   1.404       .  A
C136        F137   1.357       .  S
C141        C142   1.404   1_556  A
C141        C146   1.400       .  A
C141        H148   1.083       .  S
C142        C143   1.403       .  A
C143        C144   1.397       .  A
C143        F150   1.357       .  S
C144        C145   1.403       .  A
C144        H149   1.083       .  S
C145        C151   1.486   1_554  S
C145        C146   1.406   1_554  A
C146        F147   1.357       .  S
C151        C262   1.487   1_545  S
C151        C302   1.361   1_445  D
C152        C285   1.486       .  S
C152        C301   1.361       .  D
C153        C255   1.484       .  S
C153        C454   1.361   1_455  D
C154        C242   1.487       .  S
C154        C453   1.361       .  D
Zn155       O159   1.953   1_556  S
Zn155       O160   2.009       .  S
Zn155       O164   2.005       .  S
Zn155       O171   2.010       .  S
Zn156       O159   1.966       .  S
Zn156       O161   2.020       .  S
Zn156       O163   2.029       .  S
Zn156       O167   2.024       .  S
Zn157       O159   1.965       .  S
Zn157       O162   2.022       .  S
Zn157       O165   2.018       .  S
Zn157       O168   2.027       .  S
Zn158       O159   1.954   1_556  S
Zn158       O166   2.011       .  S
Zn158       O169   2.006       .  S
Zn158       O170   2.013       .  S
O160        C172   1.272   1_556  A
O161        C173   1.274       .  A
O162        C174   1.274   1_554  A
O163        C172   1.274       .  A
O164        C174   1.274       .  A
O165        C173   1.273       .  A
O166        C175   1.272   1_556  A
O167        C176   1.275   1_554  A
O168        C175   1.274       .  A
O169        C176   1.274       .  A
O170        C177   1.272       .  A
O171        C177   1.272       .  A
C172        C292   1.469       .  S
C173        C215   1.486       .  S
C174        C282   1.482       .  S
C175        C272   1.469       .  S
C176        C265   1.483       .  S
C177        C202   1.483       .  S
Zn178       O182   1.952       .  S
Zn178       O183   1.998       .  S
Zn178       O187   2.012       .  S
Zn178       O194   2.012       .  S
Zn179       O182   1.967       .  S
Zn179       O184   2.026       .  S
Zn179       O186   2.030       .  S
Zn179       O190   2.019       .  S
Zn180       O182   1.952       .  S
Zn180       O185   2.011       .  S
Zn180       O188   2.013       .  S
Zn180       O191   1.998       .  S
Zn181       O182   1.967       .  S
Zn181       O189   2.028       .  S
Zn181       O192   2.019       .  S
Zn181       O193   2.026       .  S
O183        C195   1.273       .  A
O184        C196   1.274       .  A
O185        C197   1.272       .  A
O186        C195   1.276       .  A
O187        C197   1.272       .  A
O188        C196   1.272       .  A
O189        C198   1.275       .  A
O190        C199   1.274       .  A
O191        C198   1.273       .  A
O192        C199   1.274       .  A
O193        C200   1.274       .  A
O194        C200   1.272       .  A
C195        C252   1.482       .  S
C196        C225   1.469       .  S
C197        C205   1.482       .  S
C198        C232   1.482       .  S
C199        C212   1.485       .  S
C200        C245   1.468       .  S
C201        C202   1.406       .  A
C201        C206   1.398       .  A
C201        H208   1.083       .  S
C202        C203   1.409       .  A
C203        C204   1.397       .  A
C203        F210   1.358       .  S
C204        C205   1.405       .  A
C204        H209   1.083       .  S
C205        C206   1.409       .  A
C206        F207   1.358       .  S
C211        C212   1.406       .  A
C211        C216   1.399       .  A
C211        H218   1.083       .  S
C212        C213   1.409       .  A
C213        C214   1.399       .  A
C213        F220   1.357       .  S
C214        C215   1.406       .  A
C214        H219   1.083       .  S
C215        C216   1.410       .  A
C216        F217   1.357       .  S
C221        C222   1.403       .  A
C221        C226   1.397       .  A
C221        H228   1.083       .  S
C222        C223   1.406       .  A
C223        C224   1.401       .  A
C223        F230   1.357       .  S
C224        C225   1.403       .  A
C224        H229   1.083       .  S
C225        C226   1.403       .  A
C226        F227   1.358       .  S
C231        C232   1.406       .  A
C231        C236   1.393       .  A
C231        H238   1.083       .  S
C232        C233   1.410       .  A
C233        C234   1.401       .  A
C233        F240   1.357       .  S
C234        C235   1.404       .  A
C234        H239   1.083       .  S
C235        C236   1.403       .  A
C236        F237   1.357       .  S
C241        C242   1.403       .  A
C241        C246   1.396       .  A
C241        H248   1.083       .  S
C242        C243   1.407       .  A
C243        C244   1.401       .  A
C243        F250   1.357       .  S
C244        C245   1.403       .  A
C244        H249   1.083       .  S
C245        C246   1.402       .  A
C246        F247   1.358       .  S
C251        C252   1.408       .  A
C251        C256   1.400       .  A
C251        H258   1.083       .  S
C252        C253   1.410       .  A
C253        C254   1.393       .  A
C253        F260   1.358       .  S
C254        C255   1.400       .  A
C254        H259   1.083       .  S
C255        C256   1.405       .  A
C256        F257   1.357       .  S
C261        C262   1.404   1_554  A
C261        C266   1.400       .  A
C261        H268   1.083       .  S
C262        C263   1.404       .  A
C263        C264   1.393       .  A
C263        F270   1.357       .  S
C264        C265   1.406       .  A
C264        H269   1.083       .  S
C265        C266   1.411   1_556  A
C266        F267   1.357       .  S
C271        C272   1.401       .  A
C271        C276   1.397       .  A
C271        H278   1.083       .  S
C272        C273   1.405   1_554  A
C273        C274   1.401       .  A
C273        F280   1.357       .  S
C274        C275   1.404   1_556  A
C274        H279   1.083       .  S
C275        C276   1.405       .  A
C276        F277   1.357       .  S
C281        C282   1.406       .  A
C281        C286   1.393       .  A
C281        H288   1.083       .  S
C282        C283   1.411   1_556  A
C283        C284   1.400       .  A
C283        F290   1.357       .  S
C284        C285   1.404   1_554  A
C284        H289   1.083       .  S
C285        C286   1.404       .  A
C286        F287   1.357       .  S
C291        C292   1.404   1_556  A
C291        C296   1.400       .  A
C291        H298   1.083       .  S
C292        C293   1.403       .  A
C293        C294   1.397       .  A
C293        F300   1.357       .  S
C294        C295   1.403       .  A
C294        H299   1.083       .  S
C295        C296   1.406   1_554  A
C296        F297   1.357       .  S
C301        C412   1.487       .  S
C301        C595   1.486   1_556  S
C302        C575   1.486   1_556  S
C302        C435   1.486   1_565  S
C303        C522   1.485   1_545  S
C303        C405   1.484       .  S
C304        C535   1.485   1_545  S
C304        C392   1.487       .  S
Zn305       O309   1.953   1_556  S
Zn305       O310   2.009       .  S
Zn305       O314   2.005       .  S
Zn305       O321   2.010       .  S
Zn306       O309   1.966       .  S
Zn306       O311   2.020       .  S
Zn306       O313   2.029       .  S
Zn306       O317   2.024       .  S
Zn307       O309   1.965       .  S
Zn307       O312   2.022       .  S
Zn307       O315   2.018       .  S
Zn307       O318   2.027       .  S
Zn308       O309   1.954   1_556  S
Zn308       O316   2.011       .  S
Zn308       O319   2.006       .  S
Zn308       O320   2.013       .  S
O310        C322   1.272   1_556  A
O311        C323   1.274       .  A
O312        C324   1.274   1_554  A
O313        C322   1.274       .  A
O314        C324   1.274       .  A
O315        C323   1.273       .  A
O316        C325   1.272   1_556  A
O317        C326   1.275   1_554  A
O318        C325   1.274       .  A
O319        C326   1.274       .  A
O320        C327   1.272       .  A
O321        C327   1.272       .  A
C322        C442   1.469       .  S
C323        C365   1.486       .  S
C324        C432   1.482       .  S
C325        C422   1.469       .  S
C326        C415   1.483       .  S
C327        C352   1.483       .  S
Zn328       O332   1.952       .  S
Zn328       O333   1.998       .  S
Zn328       O337   2.012       .  S
Zn328       O344   2.012       .  S
Zn329       O332   1.967       .  S
Zn329       O334   2.026       .  S
Zn329       O336   2.030       .  S
Zn329       O340   2.019       .  S
Zn330       O332   1.952       .  S
Zn330       O335   2.011       .  S
Zn330       O338   2.013       .  S
Zn330       O341   1.998       .  S
Zn331       O332   1.967       .  S
Zn331       O339   2.028       .  S
Zn331       O342   2.019       .  S
Zn331       O343   2.026       .  S
O333        C345   1.273       .  A
O334        C346   1.274       .  A
O335        C347   1.272       .  A
O336        C345   1.276       .  A
O337        C347   1.272       .  A
O338        C346   1.272       .  A
O339        C348   1.275       .  A
O340        C349   1.274       .  A
O341        C348   1.273       .  A
O342        C349   1.274       .  A
O343        C350   1.274       .  A
O344        C350   1.272       .  A
C345        C402   1.482       .  S
C346        C375   1.469       .  S
C347        C355   1.482       .  S
C348        C382   1.482       .  S
C349        C362   1.485       .  S
C350        C395   1.468       .  S
C351        C352   1.406       .  A
C351        C356   1.398       .  A
C351        H358   1.083       .  S
C352        C353   1.409       .  A
C353        C354   1.397       .  A
C353        F360   1.358       .  S
C354        C355   1.405       .  A
C354        H359   1.083       .  S
C355        C356   1.409       .  A
C356        F357   1.358       .  S
C361        C362   1.406       .  A
C361        C366   1.399       .  A
C361        H368   1.083       .  S
C362        C363   1.409       .  A
C363        C364   1.399       .  A
C363        F370   1.357       .  S
C364        C365   1.406       .  A
C364        H369   1.083       .  S
C365        C366   1.410       .  A
C366        F367   1.357       .  S
C371        C372   1.403       .  A
C371        C376   1.397       .  A
C371        H378   1.083       .  S
C372        C453   1.485       .  S
C372        C373   1.406       .  A
C373        C374   1.401       .  A
C373        F380   1.357       .  S
C374        C375   1.403       .  A
C374        H379   1.083       .  S
C375        C376   1.403       .  A
C376        F377   1.358       .  S
C381        C382   1.406       .  A
C381        C386   1.393       .  A
C381        H388   1.083       .  S
C382        C383   1.410       .  A
C383        C384   1.401       .  A
C383        F390   1.357       .  S
C384        C385   1.404       .  A
C384        H389   1.083       .  S
C385        C454   1.485       .  S
C385        C386   1.403       .  A
C386        F387   1.357       .  S
C391        C392   1.403       .  A
C391        C396   1.396       .  A
C391        H398   1.083       .  S
C392        C393   1.407       .  A
C393        C394   1.401       .  A
C393        F400   1.357       .  S
C394        C395   1.403       .  A
C394        H399   1.083       .  S
C395        C396   1.402       .  A
C396        F397   1.358       .  S
C401        C402   1.408       .  A
C401        C406   1.400       .  A
C401        H408   1.083       .  S
C402        C403   1.410       .  A
C403        C404   1.393       .  A
C403        F410   1.358       .  S
C404        C405   1.400       .  A
C404        H409   1.083       .  S
C405        C406   1.405       .  A
C406        F407   1.357       .  S
C411        C412   1.404   1_554  A
C411        C416   1.400       .  A
C411        H418   1.083       .  S
C412        C413   1.404       .  A
C413        C414   1.393       .  A
C413        F420   1.357       .  S
C414        C415   1.406       .  A
C414        H419   1.083       .  S
C415        C416   1.411   1_556  A
C416        F417   1.357       .  S
C421        C422   1.401       .  A
C421        C426   1.397       .  A
C421        H428   1.083       .  S
C422        C423   1.405   1_554  A
C423        C424   1.401       .  A
C423        F430   1.357       .  S
C424        C425   1.404   1_556  A
C424        H429   1.083       .  S
C425        C452   1.486   1_554  S
C425        C426   1.405       .  A
C426        F427   1.357       .  S
C431        C432   1.406       .  A
C431        C436   1.393       .  A
C431        H438   1.083       .  S
C432        C433   1.411   1_556  A
C433        C434   1.400       .  A
C433        F440   1.357       .  S
C434        C435   1.404   1_554  A
C434        H439   1.083       .  S
C435        C436   1.404       .  A
C436        F437   1.357       .  S
C441        C442   1.404   1_556  A
C441        C446   1.400       .  A
C441        H448   1.083       .  S
C442        C443   1.403       .  A
C443        C444   1.397       .  A
C443        F450   1.357       .  S
C444        C445   1.403       .  A
C444        H449   1.083       .  S
C445        C451   1.486   1_554  S
C445        C446   1.406   1_554  A
C446        F447   1.357       .  S
C451        C562   1.487   1_545  S
C452        C585   1.486       .  S
C453        C555   1.484       .  S
C454        C542   1.487       .  S
Zn455       O459   1.953   1_556  S
Zn455       O460   2.009       .  S
Zn455       O464   2.005       .  S
Zn455       O471   2.010       .  S
Zn456       O459   1.966       .  S
Zn456       O461   2.020       .  S
Zn456       O463   2.029       .  S
Zn456       O467   2.024       .  S
Zn457       O459   1.965       .  S
Zn457       O462   2.022       .  S
Zn457       O465   2.018       .  S
Zn457       O468   2.027       .  S
Zn458       O459   1.954   1_556  S
Zn458       O466   2.011       .  S
Zn458       O469   2.006       .  S
Zn458       O470   2.013       .  S
O460        C472   1.272   1_556  A
O461        C473   1.274       .  A
O462        C474   1.274   1_554  A
O463        C472   1.274       .  A
O464        C474   1.274       .  A
O465        C473   1.273       .  A
O466        C475   1.272   1_556  A
O467        C476   1.275   1_554  A
O468        C475   1.274       .  A
O469        C476   1.274       .  A
O470        C477   1.272       .  A
O471        C477   1.272       .  A
C472        C592   1.469       .  S
C473        C515   1.486       .  S
C474        C582   1.482       .  S
C475        C572   1.469       .  S
C476        C565   1.483       .  S
C477        C502   1.483       .  S
Zn478       O482   1.952       .  S
Zn478       O483   1.998       .  S
Zn478       O487   2.012       .  S
Zn478       O494   2.012       .  S
Zn479       O482   1.967       .  S
Zn479       O484   2.026       .  S
Zn479       O486   2.030       .  S
Zn479       O490   2.019       .  S
Zn480       O482   1.952       .  S
Zn480       O485   2.011       .  S
Zn480       O488   2.013       .  S
Zn480       O491   1.998       .  S
Zn481       O482   1.967       .  S
Zn481       O489   2.028       .  S
Zn481       O492   2.019       .  S
Zn481       O493   2.026       .  S
O483        C495   1.273       .  A
O484        C496   1.274       .  A
O485        C497   1.272       .  A
O486        C495   1.276       .  A
O487        C497   1.272       .  A
O488        C496   1.272       .  A
O489        C498   1.275       .  A
O490        C499   1.274       .  A
O491        C498   1.273       .  A
O492        C499   1.274       .  A
O493        C500   1.274       .  A
O494        C500   1.272       .  A
C495        C552   1.482       .  S
C496        C525   1.469       .  S
C497        C505   1.482       .  S
C498        C532   1.482       .  S
C499        C512   1.485       .  S
C500        C545   1.468       .  S
C501        C502   1.406       .  A
C501        C506   1.398       .  A
C501        H508   1.083       .  S
C502        C503   1.409       .  A
C503        C504   1.397       .  A
C503        F510   1.358       .  S
C504        C505   1.405       .  A
C504        H509   1.083       .  S
C505        C506   1.409       .  A
C506        F507   1.358       .  S
C511        C512   1.406       .  A
C511        C516   1.399       .  A
C511        H518   1.083       .  S
C512        C513   1.409       .  A
C513        C514   1.399       .  A
C513        F520   1.357       .  S
C514        C515   1.406       .  A
C514        H519   1.083       .  S
C515        C516   1.410       .  A
C516        F517   1.357       .  S
C521        C522   1.403       .  A
C521        C526   1.397       .  A
C521        H528   1.083       .  S
C522        C523   1.406       .  A
C523        C524   1.401       .  A
C523        F530   1.357       .  S
C524        C525   1.403       .  A
C524        H529   1.083       .  S
C525        C526   1.403       .  A
C526        F527   1.358       .  S
C531        C532   1.406       .  A
C531        C536   1.393       .  A
C531        H538   1.083       .  S
C532        C533   1.410       .  A
C533        C534   1.401       .  A
C533        F540   1.357       .  S
C534        C535   1.404       .  A
C534        H539   1.083       .  S
C535        C536   1.403       .  A
C536        F537   1.357       .  S
C541        C542   1.403       .  A
C541        C546   1.396       .  A
C541        H548   1.083       .  S
C542        C543   1.407       .  A
C543        C544   1.401       .  A
C543        F550   1.357       .  S
C544        C545   1.403       .  A
C544        H549   1.083       .  S
C545        C546   1.402       .  A
C546        F547   1.358       .  S
C551        C552   1.408       .  A
C551        C556   1.400       .  A
C551        H558   1.083       .  S
C552        C553   1.410       .  A
C553        C554   1.393       .  A
C553        F560   1.358       .  S
C554        C555   1.400       .  A
C554        H559   1.083       .  S
C555        C556   1.405       .  A
C556        F557   1.357       .  S
C561        C562   1.404   1_554  A
C561        C566   1.400       .  A
C561        H568   1.083       .  S
C562        C563   1.404       .  A
C563        C564   1.393       .  A
C563        F570   1.357       .  S
C564        C565   1.406       .  A
C564        H569   1.083       .  S
C565        C566   1.411   1_556  A
C566        F567   1.357       .  S
C571        C572   1.401       .  A
C571        C576   1.397       .  A
C571        H578   1.083       .  S
C572        C573   1.405   1_554  A
C573        C574   1.401       .  A
C573        F580   1.357       .  S
C574        C575   1.404   1_556  A
C574        H579   1.083       .  S
C575        C576   1.405       .  A
C576        F577   1.357       .  S
C581        C582   1.406       .  A
C581        C586   1.393       .  A
C581        H588   1.083       .  S
C582        C583   1.411   1_556  A
C583        C584   1.400       .  A
C583        F590   1.357       .  S
C584        C585   1.404   1_554  A
C584        H589   1.083       .  S
C585        C586   1.404       .  A
C586        F587   1.357       .  S
C591        C592   1.404   1_556  A
C591        C596   1.400       .  A
C591        H598   1.083       .  S
C592        C593   1.403       .  A
C593        C594   1.397       .  A
C593        F600   1.357       .  S
C594        C595   1.403       .  A
C594        H599   1.083       .  S
C595        C596   1.406   1_554  A
C596        F597   1.357       .  S
