geometry optimzed in LAMMPS
_audit_creation_date              2020-11-30 
_audit_creation_method            'lammps2cif' 
_symmetry_space_group_name_H-M    'P1' 
_symmetry_Int_Tables_number       1 
_symmetry_cell_setting            triclinic 
loop_ 
_symmetry_equiv_pos_as_xyz 
  x,y,z 
_cell_length_a                    36.84503103 
_cell_length_b                    36.89193374605182 
_cell_length_c                    51.852950103102565 
_cell_angle_alpha                 89.32014645977506 
_cell_angle_beta                  90.57089612422658 
_cell_angle_gamma                 120.16851549709125 
loop_ 
_atom_site_label 
_atom_site_type_symbol 
_atom_site_fract_x 
_atom_site_fract_y 
_atom_site_fract_z 
_atom_site_charge 
C1          C  0.27001974  0.23766482  0.06350200     0.80100
N2          N  0.24225711  0.20153632  0.07566694    -0.78200
C3          C  0.24998349  0.19334474  0.10004236     0.82500
N4          N  0.28593634  0.22114464  0.11221747    -0.78200
C5          C  0.31395084  0.25722980  0.10022425     0.82600
N6          N  0.30610217  0.26520776  0.07581389    -0.79900
C7          C  0.23980488  0.26021040  0.87143664     0.80100
N8          N  0.26848710  0.29524312  0.85866324    -0.78200
C9          C  0.26330458  0.30065340  0.83324267     0.82500
N10         N  0.22877539  0.27119824  0.82061300    -0.78200
C11         C  0.19994154  0.23603375  0.83312754     0.82600
N12         N  0.20537570  0.23078709  0.85857624    -0.79900
O13         O  0.23298185  0.20609517  0.49790389    -0.71900
O14         O  0.27193081  0.31356547  0.46772845    -0.72100
O15         O  0.19900898  0.24121094  0.46742109    -0.72000
O16         O  0.30571477  0.27811998  0.49810999    -0.72000
O17         O  0.32560679  0.25934746  0.46390261    -0.72000
O18         O  0.21865609  0.22148890  0.43352536    -0.72000
O19         O  0.29109728  0.29401800  0.43355274    -0.71900
O20         O  0.25301651  0.18683872  0.46397875    -0.72100
V21         V  0.25279213  0.25940039  0.48211733     1.35200
V22         V  0.27171392  0.24080305  0.44940696     1.35200
C23         C  0.23748520  0.17864455  0.48637439     0.77300
C24         C  0.28705758  0.32165300  0.44523921     0.77400
C25         C  0.19106528  0.22588172  0.44501828     0.77200
C26         C  0.33334344  0.27393674  0.48647171     0.77200
O27         O  0.13214773  0.43912892  0.83079720    -0.71900
O28         O  0.02515738  0.40175939  0.80063554    -0.72100
O29         O  0.05940788  0.36674471  0.83078658    -0.72000
O30         O  0.09795209  0.47418748  0.80056811    -0.72000
O31         O  0.11699607  0.45462206  0.76634976    -0.72000
O32         O  0.07896764  0.34738352  0.79670128    -0.72000
O33         O  0.04436830  0.38211651  0.76651372    -0.71900
O34         O  0.15173365  0.41999774  0.79661617    -0.72100
V35         V  0.07905577  0.42008270  0.81502469     1.35200
V36         V  0.09766240  0.40140854  0.78221317     1.35200
C37         C  0.15979704  0.43512712  0.81907304     0.77300
C38         C  0.01687640  0.38638590  0.77826275     0.77400
C39         C  0.06346284  0.33912486  0.81909494     0.77200
C40         C  0.11300386  0.48227015  0.77805109     0.77200
C41         C  0.27872619  0.03213088  0.06006276     0.80100
N42         N  0.24919572  0.03708661  0.07246674    -0.78200
C43         C  0.25433181  0.04789657  0.09775381     0.82500
N44         N  0.28914074  0.05379138  0.11061114    -0.78200
C45         C  0.31840292  0.04827402  0.09844728     0.82600
N46         N  0.31321770  0.03772490  0.07316612    -0.79900
C47         C  0.24113957  0.96549780  0.86985668     0.80100
N48         N  0.20563008  0.45782436  0.85688901    -0.78200
C49         C  0.19953205  0.44592703  0.83184157     0.82500
N50         N  0.22852293  0.44012224  0.81959138    -0.78200
C51         C  0.26382471  0.44690451  0.83218758     0.82600
N52         N  0.26973425  0.45896667  0.85725180    -0.79900
C53         C  0.97795960  0.23312985  0.06129612     0.80100
N54         N  0.97166945  0.26143074  0.07403109    -0.78200
C55         C  0.46148256  0.25547610  0.09939952     0.82500
N56         N  0.45678328  0.22100182  0.11209399    -0.78200
C57         C  0.46356895  0.19272836  0.09970842     0.82600
N58         N  0.97395773  0.19904886  0.07420993    -0.79900
C59         C  0.03340468  0.25740775  0.86957002     0.80100
N60         N  0.03972983  0.29244086  0.85671610    -0.78200
C61         C  0.05251987  0.29921117  0.83179005     0.82500
N62         N  0.05962251  0.27098123  0.81967412    -0.78200
C63         C  0.05340021  0.23584558  0.83225183     0.82600
N64         N  0.04064724  0.22935792  0.85721791    -0.79900
O65         O  0.39836300  0.03692067  0.16460495    -0.71900
O66         O  0.43818888  0.14490419  0.13497758    -0.72100
O67         O  0.36514719  0.07278808  0.13421090    -0.72000
O68         O  0.47156131  0.10907936  0.16543528    -0.72000
O69         O  0.49137374  0.09015119  0.13127032    -0.72000
O70         O  0.38519639  0.05374228  0.10019502    -0.72000
O71         O  0.45792733  0.12577083  0.10086878    -0.71900
O72         O  0.41838299  0.01790958  0.13056620    -0.72100
V73         V  0.41871358  0.09056110  0.14915581     1.35200
V74         V  0.43786613  0.07226096  0.11641935     1.35200
C75         C  0.40234828  0.00934580  0.15281421     0.77300
C76         C  0.45361951  0.15322122  0.11256082     0.77400
C77         C  0.35753456  0.05806542  0.11164916     0.77200
C78         C  0.99926859  0.10514135  0.15351536     0.77200
C79         C  0.10758406  0.40727922  0.39559754     0.80100
N80         N  0.14321360  0.43482437  0.40824584    -0.78200
C81         C  0.15022159  0.42708674  0.43287119     0.82500
N82         N  0.12175647  0.39117689  0.44481944    -0.78200
C83         C  0.08610010  0.36330480  0.43238427     0.82600
N84         N  0.07920924  0.37126005  0.40770493    -0.79900
C85         C  0.07865615  0.43000702  0.20330517     0.80100
N86         N  0.04351127  0.40103395  0.19083572    -0.78200
C87         C  0.03788577  0.40564912  0.16534172     0.82500
N88         N  0.06722153  0.43992464  0.15233340    -0.78200
C89         C  0.10249769  0.46893517  0.16458446     0.82600
N90         N  0.10787907  0.46399263  0.19002292    -0.79900
C91         C  0.11120015  0.19790174  0.39382133     0.80100
N92         N  0.14582750  0.20379731  0.40693069    -0.78200
C93         C  0.15165856  0.21557897  0.43199799     0.82500
N94         N  0.12298964  0.22221434  0.44397027    -0.78200
C95         C  0.08824552  0.21646877  0.43111717     0.82600
N96         N  0.08256930  0.20459900  0.40600086    -0.79900
C97         C  0.08161637  0.13320676  0.20345068     0.80100
N98         N  0.10940645  0.12649174  0.19039149    -0.78200
C99         C  0.10217236  0.11394892  0.16549112     0.82500
N100        N  0.06679107  0.10800911  0.15347433    -0.78200
C101        C  0.03896412  0.11514929  0.16614908     0.82600
N102        N  0.04632686  0.12757122  0.19117765    -0.79900
O103        O  0.16286595  0.10759076  0.16404781    -0.71900
O104        O  0.23216662  0.07187398  0.13310106    -0.72100
O105        O  0.23105484  0.14370972  0.13391624    -0.72000
O106        O  0.16372739  0.03584289  0.16332665    -0.72000
O107        O  0.12419473  0.01617679  0.12902458    -0.72000
O108        O  0.19059155  0.12485727  0.10002662    -0.72000
O109        O  0.19284885  0.05352817  0.09871836    -0.71900
O110        O  0.12230173  0.08764629  0.13020112    -0.72100
V111        V  0.19669243  0.08933882  0.14790453     1.35200
V112        V  0.15825987  0.07087126  0.11513416     1.35200
C113        C  0.13046978  0.10306943  0.15257921     0.77300
C114        C  0.22490386  0.05757485  0.11045125     0.77400
C115        C  0.22241412  0.15253173  0.11193595     0.77200
C116        C  0.13190307  0.00807940  0.15148677     0.77200
O117        O  0.99829653  0.27828195  0.49747023    -0.71900
O118        O  0.06736030  0.24240388  0.46611168    -0.72100
O119        O  0.06630186  0.31432393  0.46679349    -0.72000
O120        O  0.99937321  0.20652939  0.49669695    -0.72000
O121        O  0.45869913  0.18736140  0.46332301    -0.72000
O122        O  0.02600966  0.29498754  0.43283512    -0.72000
O123        O  0.02723491  0.22306141  0.43208350    -0.71900
O124        O  0.45797517  0.25946513  0.46385948    -0.72100
V125        V  0.03208665  0.26003583  0.48107096     1.35200
V126        V  0.49313110  0.24157766  0.44885150     1.35200
C127        C  0.46593051  0.27447026  0.48636901     0.77300
C128        C  0.05945621  0.22724029  0.44366853     0.77400
C129        C  0.05795599  0.32277411  0.44459601     0.77200
C130        C  0.46678087  0.17934482  0.48571786     0.77200
C131        C  0.41105756  0.29597713  0.53807091     0.80100
N132        N  0.37685720  0.29139354  0.52512050    -0.78200
C133        C  0.37244055  0.28331261  0.49950234     0.82500
N134        N  0.40204765  0.27894252  0.48684602    -0.78200
C135        C  0.43662750  0.28389206  0.49954752     0.82600
N136        N  0.44108169  0.29241254  0.52521494    -0.79900
C137        C  0.43333416  0.35425042  0.72903413     0.80100
N138        N  0.40536176  0.36109897  0.74184219    -0.78200
C139        C  0.41267161  0.37465679  0.76659282     0.82500
N140        N  0.44840608  0.38168326  0.77866459    -0.78200
C141        C  0.47645430  0.37466441  0.76620595     0.82600
N142        N  0.46895535  0.36124726  0.74143997    -0.79900
O143        O  0.35250867  0.38216913  0.76745381    -0.71900
O144        O  0.28488132  0.42090110  0.79734316    -0.72100
O145        O  0.35325153  0.45495885  0.76697381    -0.72000
O146        O  0.28428579  0.34819489  0.79786929    -0.72000
O147        O  0.32439759  0.36802857  0.83190962    -0.72000
O148        O  0.39325116  0.47477224  0.80106097    -0.72000
O149        O  0.32483121  0.44057224  0.83145712    -0.71900
O150        O  0.39274759  0.40200562  0.80143761    -0.72100
V151        V  0.31951713  0.40195693  0.78308026     1.35200
V152        V  0.35806545  0.42097753  0.81579251     1.35200
C153        C  0.38452847  0.38617938  0.77915744     0.77300
C154        C  0.29274619  0.43636455  0.81969758     0.77400
C155        C  0.38539693  0.48273781  0.77860297     0.77200
C156        C  0.29215371  0.34030219  0.82034804     0.77200
C157        C  0.41336841  0.10046042  0.53715406     0.80100
N158        N  0.37846937  0.07150205  0.52454419    -0.78200
C159        C  0.37346627  0.07611787  0.49898619     0.82500
N160        N  0.40291112  0.11060945  0.48620064    -0.78200
C161        C  0.43786614  0.13977538  0.49868677     0.82600
N162        N  0.44294500  0.13466047  0.52419354    -0.79900
C163        C  0.43435259  0.06638619  0.72895529     0.80100
N164        N  0.47010082  0.09445179  0.74141360    -0.78200
C165        C  0.47738601  0.08742830  0.76619383     0.82500
N166        N  0.44901341  0.05188249  0.77854945    -0.78200
C167        C  0.41319048  0.02377604  0.76641646     0.82600
N168        N  0.40609335  0.03112687  0.74171494    -0.79900
O169        O  0.39784582  0.34483470  0.16461563    -0.71900
O170        O  0.43576019  0.27653204  0.13457807    -0.72100
O171        O  0.47048332  0.34514154  0.16461054    -0.72000
O172        O  0.36306010  0.27649316  0.13457149    -0.72000
O173        O  0.38223931  0.31695994  0.10063076    -0.72000
O174        O  0.98994112  0.38440576  0.13031116    -0.72000
O175        O  0.45416742  0.31573756  0.10009035    -0.71900
O176        O  0.41819884  0.38522578  0.13063960    -0.72100
V177        V  0.41717349  0.31148921  0.14891954     1.35200
V178        V  0.43586630  0.34975935  0.11602854     1.35200
C179        C  0.40230661  0.37705637  0.15292528     0.77300
C180        C  0.45056852  0.28402361  0.11201112     0.77400
C181        C  0.99793189  0.37682646  0.15282685     0.77200
C182        C  0.35451712  0.28496000  0.11243002     0.77200
C183        C  0.31213133  0.40095448  0.39392617     0.80100
N184        N  0.30661788  0.42985843  0.40659143    -0.78200
C185        C  0.29633282  0.42461792  0.43196690     0.82500
N186        N  0.29116023  0.38997034  0.44471159    -0.78200
C187        C  0.29718712  0.36118964  0.43233252     0.82600
N188        N  0.30752041  0.36674321  0.40696164    -0.79900
C189        C  0.37060222  0.42641080  0.20270867     0.80100
N190        N  0.37755007  0.46188161  0.19014562    -0.78200
C191        C  0.39076698  0.46904390  0.16529639     0.82500
N192        N  0.39777425  0.44086208  0.15304119    -0.78200
C193        C  0.39102073  0.40539012  0.16539936     0.82600
N194        N  0.37775405  0.39843476  0.19024215    -0.79900
O195        O  0.25403560  0.05514675  0.46418678    -0.71900
O196        O  0.29047293  0.98614833  0.43321515    -0.72100
O197        O  0.21822941  0.48697660  0.43358273    -0.72000
O198        O  0.32615736  0.05449170  0.46360988    -0.72000
O199        O  0.30648039  0.51460678  0.49738475    -0.72000
O200        O  0.19883101  0.44652061  0.46753210    -0.72000
O201        O  0.27122774  0.44611239  0.46724200    -0.71900
O202        O  0.23419556  0.51480613  0.49780493    -0.72100
V203        V  0.27194659  0.01995322  0.44935373     1.35200
V204        V  0.25306498  0.48126201  0.48181243     1.35200
C205        C  0.23847093  0.04696982  0.48657914     0.77300
C206        C  0.28603755  0.45363089  0.44467480     0.77400
C207        C  0.19047750  0.45493603  0.44532602     0.77200
C208        C  0.33401071  0.04690125  0.48615207     0.77200
C209        C  0.21078646  0.09836971  0.53740567     0.80100
N210        N  0.21598308  0.13296150  0.52451184    -0.78200
C211        C  0.22726063  0.13910523  0.49927877     0.82500
N212        N  0.23363153  0.11060439  0.48689876    -0.78200
C213        C  0.22800307  0.07569131  0.49944565     0.82600
N214        N  0.21676609  0.06977145  0.52469133    -0.79900
C215        C  0.13893872  0.06195190  0.72740417     0.80100
N216        N  0.13381807  0.09104223  0.74020810    -0.78200
C217        C  0.12300719  0.08541056  0.76554615     0.82500
N218        N  0.11705119  0.05033074  0.77809548    -0.78200
C219        C  0.12268544  0.02140687  0.76561340     0.82600
N220        N  0.13344935  0.02728234  0.74030936    -0.79900
O221        O  0.11757649  0.14688635  0.76688019    -0.71900
O222        O  0.08079237  0.21575673  0.79753431    -0.72100
O223        O  0.15290427  0.21488994  0.79758405    -0.72000
O224        O  0.04564129  0.14796366  0.76694042    -0.72000
O225        O  0.02559260  0.10729160  0.80078846    -0.72000
O226        O  0.13250463  0.17481347  0.83169126    -0.72000
O227        O  0.06016842  0.17511110  0.83138570    -0.71900
O228        O  0.09790168  0.10676460  0.80096348    -0.72100
V229        V  0.09889319  0.18060780  0.78291197     1.35200
V230        V  0.07945849  0.14175104  0.81553474     1.35200
C231        C  0.11306419  0.11455060  0.77846316     0.77300
C232        C  0.06473850  0.20745877  0.81978322     0.77400
C233        C  0.16049963  0.20696749  0.82012967     0.77200
C234        C  0.01765520  0.11580791  0.77849550     0.77200
C235        C  0.16502930  0.10523424  0.60108713    -0.02200
C236        C  0.18002020  0.08591430  0.61839517     0.06400
C237        C  0.20477269  0.07003956  0.60895860    -0.08100
C238        C  0.21507239  0.07343965  0.58276065     0.03900
C239        C  0.20032903  0.09309631  0.56533494    -0.15400
C240        C  0.17556758  0.10901427  0.57491717    -0.08700
C241        C  0.16927474  0.08056645  0.64627323     0.04800
C242        C  0.14492860  0.03985442  0.65624055    -0.09800
C243        C  0.13438501  0.03293367  0.68242279    -0.00200
C244        C  0.14884970  0.06739664  0.69938004    -0.00300
C245        C  0.17302259  0.10820255  0.68924339    -0.13400
C246        C  0.18346378  0.11500174  0.66301746     0.00100
C247        C  0.10717246  0.99020834  0.69091071     0.39400
C248        C  0.20965133  0.15751060  0.65388673     0.36100
C249        C  0.13770627  0.12020952  0.60955501     0.35800
C250        C  0.24198238  0.05773197  0.57466688     0.36600
N251        N  0.08823412  0.45591394  0.69760912    -0.44200
N252        N  0.23052359  0.19159886  0.64656923    -0.44700
N253        N  0.26349763  0.04503942  0.56827200    -0.42000
N254        N  0.11580958  0.13222720  0.61631820    -0.43500
H255        H  0.16373006  0.12386066  0.56182563     0.12700
H256        H  0.21636072  0.05515697  0.62222027     0.09200
H257        H  0.13368111  0.01331595  0.64337197     0.10200
H258        H  0.18443641  0.13495414  0.70193243     0.16100
C259        C  0.36777222  0.45373827  0.27240232    -0.02200
C260        C  0.34466914  0.41399448  0.28419844     0.06400
C261        C  0.32917453  0.37789237  0.26906877    -0.08100
C262        C  0.33669259  0.38090872  0.24246433     0.03900
C263        C  0.35988830  0.42084891  0.23054792    -0.15400
C264        C  0.37489015  0.45686636  0.24583516    -0.08700
C265        C  0.33606846  0.40974101  0.31227686     0.04800
C266        C  0.31085246  0.42462891  0.32229057    -0.09800
C267        C  0.30284388  0.42244114  0.34874726    -0.00200
C268        C  0.32035309  0.40496453  0.36579082    -0.00300
C269        C  0.34513575  0.38951930  0.35559220    -0.13400
C270        C  0.35321045  0.39191869  0.32910710     0.00100
C271        C  0.27517562  0.43681769  0.35754395     0.39400
C272        C  0.38012383  0.37703359  0.31971105     0.36100
C273        C  0.38584978  0.49171920  0.28736196     0.35800
C274        C  0.31939278  0.34254808  0.22793438     0.36600
N275        N  0.25296667  0.44832713  0.36452419    -0.44200
N276        N  0.40172790  0.36518322  0.31213010    -0.44700
N277        N  0.30556380  0.31173789  0.21636094    -0.42000
N278        N  0.39972776  0.02257523  0.29899092    -0.43500
H279        H  0.39332045  0.48772297  0.23715417     0.12700
H280        H  0.31105068  0.34726619  0.27810768     0.09200
H281        H  0.29723738  0.43790207  0.30929245     0.10200
H282        H  0.35873173  0.37600500  0.36839853     0.16100
C283        C  0.38475950  0.08848038  0.60755387    -0.02200
C284        C  0.42104972  0.09218251  0.61943918     0.06400
C285        C  0.45500937  0.09861609  0.60410099    -0.08100
C286        C  0.45315553  0.10128510  0.57720054     0.03000
C287        C  0.41670334  0.09718922  0.56532940    -0.15400
C288        C  0.38277033  0.09075180  0.58067538    -0.08700
C289        C  0.42321502  0.08693787  0.64769620     0.04800
C290        C  0.39620765  0.04775050  0.65879783    -0.09800
C291        C  0.39826077  0.04035396  0.68514213    -0.00200
C292        C  0.42822328  0.07291893  0.70112093    -0.00300
C293        C  0.45461755  0.11255202  0.68982206    -0.13400
C294        C  0.45238314  0.11969304  0.66341835     0.00100
C295        C  0.37632575  0.49377048  0.69316668     0.39400
C296        C  0.98405968  0.15853629  0.65120494     0.36100
C297        C  0.34962235  0.08325964  0.62258492     0.35800
C298        C  0.48812317  0.10622812  0.56212765     0.36600
N299        N  0.35479904  0.45989518  0.70063708    -0.44200
N300        N  0.00629354  0.19141839  0.64255628    -0.44700
N301        N  0.02087864  0.11309507  0.54837207    -0.42000
N302        N  0.32153559  0.07919330  0.63464934    -0.43500
H303        H  0.35492373  0.08821266  0.57164189     0.12700
H304        H  0.48268675  0.10079898  0.61316674     0.09200
H305        H  0.37384022  0.02247045  0.64662033     0.10200
H306        H  0.47745504  0.13817708  0.70156261     0.16100
C307        C  0.45434672  0.34264927  0.60339227    -0.02200
C308        C  0.42044592  0.31691617  0.61978479     0.06400
C309        C  0.38354674  0.28404479  0.60919245    -0.08100
C310        C  0.38004886  0.27641735  0.58265991     0.03900
C311        C  0.41403070  0.30209967  0.56624694    -0.15400
C312        C  0.45109319  0.33470838  0.57687778    -0.08700
C313        C  0.42247119  0.32422486  0.64796569     0.04800
C314        C  0.39546878  0.33626163  0.65875586    -0.09800
C315        C  0.39735152  0.34517295  0.68508326    -0.00200
C316        C  0.42702922  0.34206683  0.70128189    -0.00300
C317        C  0.45297343  0.32846794  0.69034602    -0.13400
C318        C  0.45076930  0.31940515  0.66406893     0.00100
C319        C  0.36899587  0.35832817  0.69439296     0.39400
C320        C  0.47751303  0.30470778  0.65409973     0.36100
C321        C  0.99104251  0.38291700  0.61210458     0.35800
C322        C  0.34185571  0.24113806  0.57293016     0.36600
N323        N  0.34605729  0.36869098  0.70172377    -0.44200
N324        N  0.49895031  0.29298268  0.64605712    -0.44700
N325        N  0.31129700  0.21278549  0.56519319    -0.42000
N326        N  0.02023743  0.41268067  0.61986228    -0.43500
H327        H  0.97638438  0.35858691  0.56326007     0.12700
H328        H  0.35749184  0.26413429  0.62175888     0.09200
H329        H  0.37330146  0.33947532  0.64638734     0.10200
H330        H  0.47534472  0.32496270  0.70229942     0.16100
C331        C  0.14204521  0.19679754  0.32453141    -0.02200
C332        C  0.10271401  0.17432026  0.31212270     0.06400
C333        C  0.06597302  0.15824386  0.32681746    -0.08100
C334        C  0.06779794  0.16485990  0.35344363     0.03900
C335        C  0.10714877  0.18825087  0.36586887    -0.15400
C336        C  0.14393858  0.20360616  0.35112650    -0.08700
C337        C  0.09900206  0.16589315  0.28401026     0.04800
C338        C  0.11479683  0.14144837  0.27406479    -0.09800
C339        C  0.10990050  0.13068758  0.24796621    -0.00200
C340        C  0.08870501  0.14461209  0.23116024    -0.00300
C341        C  0.07312914  0.16932000  0.24121130    -0.13400
C342        C  0.07819347  0.18009463  0.26733495     0.00100
C343        C  0.12510614  0.10355418  0.23949365     0.39400
C344        C  0.06222138  0.20616577  0.27655259     0.36100
C345        C  0.18086040  0.21387819  0.31035063     0.35800
C346        C  0.52821976  0.14555101  0.36795831     0.36600
N347        N  0.13730287  0.08178685  0.23280030    -0.44200
N348        N  0.04940194  0.22701813  0.28398376    -0.44700
N349        N  0.49694680  0.12996143  0.37922806    -0.42000
N350        N  0.21202353  0.22746280  0.29907238    -0.43500
H351        H  0.17442706  0.22168597  0.36030869     0.12700
H352        H  0.03568013  0.13995572  0.31743403     0.09200
H353        H  0.13018311  0.12987106  0.28693707     0.10200
H354        H  0.05709494  0.18047963  0.22859087     0.16100
C355        C  0.13624930  0.43770473  0.32583581    -0.02200
C356        C  0.09681620  0.42436398  0.31419406     0.06400
C357        C  0.06068503  0.40631828  0.32958437    -0.08100
C358        C  0.06325196  0.40100204  0.35620701     0.03900
C359        C  0.10274589  0.41423361  0.36787980    -0.15400
C360        C  0.13892157  0.43309851  0.35245637    -0.08700
C361        C  0.09218594  0.42650994  0.28585336     0.04800
C362        C  0.06867638  0.38896477  0.27231741    -0.09800
C363        C  0.06393025  0.38904010  0.24550203    -0.00200
C364        C  0.08319505  0.42746981  0.23166511    -0.00300
C365        C  0.10656029  0.46505611  0.24539804    -0.13400
C366        C  0.11082150  0.46491362  0.27221744     0.00100
C367        C  0.04003913  0.34910835  0.23283314     0.39400
C368        C  0.13344852  0.50461941  0.28531976     0.36100
C369        C  0.17413895  0.45412052  0.31076617     0.35800
C370        C  0.02500343  0.38251931  0.37102248     0.36600
N371        N  0.02076689  0.31701938  0.22278529    -0.44200
N372        N  0.15168546  0.53651134  0.29571336    -0.44700
N373        N  0.49476084  0.36821252  0.38272776    -0.42000
N374        N  0.20523788  0.96841570  0.29878716    -0.43500
H375        H  0.16939475  0.44283453  0.36106515     0.12700
H376        H  0.03028369  0.39597950  0.32067183     0.09200
H377        H  0.05432618  0.35937320  0.28277678     0.10200
H378        H  0.12087598  0.49489865  0.23524469     0.16100
C379        C  0.52998575  0.28660495  0.93893326    -0.02200
C380        C  0.00998611  0.24761432  0.95147327     0.06400
C381        C  0.99696539  0.21111975  0.93709042    -0.08100
C382        C  0.00335262  0.21317348  0.91038420     0.03900
C383        C  0.02331636  0.25257839  0.89756828    -0.15400
C384        C  0.53623421  0.28885723  0.91227448    -0.08700
C385        C  0.00244487  0.24405611  0.97969634     0.04800
C386        C  0.47595474  0.25609797  0.98987635    -0.09800
C387        C  0.46766579  0.25317854  0.01631818    -0.00200
C388        C  0.98630489  0.23775598  0.03320344    -0.00300
C389        C  0.01347180  0.22525953  0.02301100    -0.13400
C390        C  0.02187719  0.22856060  0.99653695     0.00100
C391        C  0.43797936  0.26496928  0.02514448     0.39400
C392        C  0.05143766  0.21700779  0.98718334     0.36100
C393        C  0.54455365  0.32510523  0.95297481     0.35800
C394        C  0.98797204  0.17422872  0.89672375     0.36600
N395        N  0.41416870  0.27442319  0.03214105    -0.44200
N396        N  0.07522373  0.20787413  0.97968930    -0.44700
N397        N  0.97553487  0.14290235  0.88588251    -0.42000
N398        N  0.55616213  0.35593369  0.96423256    -0.43500
H399        H  0.55178295  0.31943267  0.90297624     0.12700
H400        H  0.98147798  0.18085776  0.94679539     0.09200
H401        H  0.46077285  0.26774352  0.97689781     0.10200
H402        H  0.02866291  0.21341596  0.03581962     0.16100
C403        C  0.22874277  0.98208788  0.99652876    -0.02200
C404        C  0.26285630  0.00214590  0.97935093     0.06400
C405        C  0.30154924  0.53153649  0.98880873    -0.08100
C406        C  0.30763354  0.54187073  0.01498394     0.03900
C407        C  0.27412504  0.02237718  0.03225188    -0.15400
C408        C  0.23452675  0.99262950  0.02267636    -0.08700
C409        C  0.25781925  0.99293192  0.95132753     0.04800
C410        C  0.22945784  0.00002994  0.93706117    -0.09800
C411        C  0.22351670  0.99173271  0.91062384    -0.00200
C412        C  0.24685497  0.97637935  0.89775803    -0.00300
C413        C  0.27471635  0.46860424  0.91231756    -0.13400
C414        C  0.28004909  0.47657795  0.93881249     0.00100
C415        C  0.19351558  0.99982185  0.89749224     0.39400
C416        C  0.30869580  0.46758939  0.95286630     0.36100
C417        C  0.18784841  0.94974800  0.98792086     0.35800
C418        C  0.34890824  0.57386188  0.02333508     0.36600
N419        N  0.16925369  0.00616182  0.88713546    -0.44200
N420        N  0.33173465  0.46055027  0.96416115    -0.44700
N421        N  0.38201482  0.59952644  0.02993081    -0.42000
N422        N  0.15511376  0.92379187  0.98100123    -0.43500
H423        H  0.20817617  0.97697135  0.03576810     0.12700
H424        H  0.32773992  0.54721657  0.97560006     0.09200
H425        H  0.21185116  0.01222645  0.94669578     0.10200
H426        H  0.29249779  0.45620685  0.90316410     0.16100
C427        C  0.29610140  0.26698877  0.99345073    -0.02200
C428        C  0.25607657  0.25094872  0.98209829     0.06400
C429        C  0.22032983  0.23207884  0.99776999    -0.08100
C430        C  0.22397019  0.22864547  0.02450348     0.03900
C431        C  0.26411513  0.24407838  0.03586729    -0.15400
C432        C  0.29980806  0.26372891  0.02008807    -0.08700
C433        C  0.25104787  0.25343257  0.95386364     0.04800
C434        C  0.23344345  0.21655153  0.93935053    -0.09800
C435        C  0.22987902  0.21785908  0.91245987    -0.00200
C436        C  0.24385169  0.25674419  0.89972013    -0.00300
C437        C  0.26129234  0.29356671  0.91443792    -0.13400
C438        C  0.26477906  0.29216229  0.94125529     0.00100
C439        C  0.21361023  0.17914597  0.89841736     0.39400
C440        C  0.28202028  0.33074466  0.95554420     0.36100
C441        C  0.33375341  0.28559935  0.97804910     0.35800
C442        C  0.18617903  0.21019969  0.03978410     0.36600
N443        N  0.20073694  0.14810506  0.88719262    -0.44200
N444        N  0.29590926  0.36152354  0.96713777    -0.44700
N445        N  0.15586512  0.19552632  0.05199611    -0.42000
N446        N  0.36395366  0.30055725  0.96573559    -0.43500
H447        H  0.33079445  0.27531678  0.02843705     0.12700
H448        H  0.18952429  0.22014148  0.98906186     0.09200
H449        H  0.22323899  0.18675725  0.94904557     0.10200
H450        H  0.27164210  0.32359104  0.90502205     0.16100
C451        C  0.27034470  0.73744134  0.06315590     0.80100
N452        N  0.24248044  0.70141810  0.07539870    -0.78200
C453        C  0.25005415  0.69339052  0.09985819     0.82500
N454        N  0.28596844  0.72123985  0.11203859    -0.78200
C455        C  0.31408557  0.75721206  0.09998643     0.82600
N456        N  0.30637993  0.76504048  0.07550012    -0.79900
C457        C  0.23962764  0.76054642  0.87107034     0.80100
N458        N  0.26833074  0.79550468  0.85825878    -0.78200
C459        C  0.26322094  0.80078989  0.83280592     0.82500
N460        N  0.22868879  0.77129704  0.82018589    -0.78200
C461        C  0.19981405  0.73618929  0.83274427     0.82600
N462        N  0.20521918  0.73105239  0.85822209    -0.79900
O463        O  0.23290560  0.70613112  0.49760644    -0.71900
O464        O  0.27206073  0.81377744  0.46763210    -0.72100
O465        O  0.19899044  0.74154129  0.46737654    -0.72000
O466        O  0.30578295  0.77801903  0.49781863    -0.72000
O467        O  0.32543261  0.75923830  0.46351232    -0.72000
O468        O  0.21836081  0.72183399  0.43335322    -0.72000
O469        O  0.29096894  0.79423644  0.43334392    -0.71900
O470        O  0.25269207  0.68688924  0.46356482    -0.72100
V471        V  0.25282181  0.75952729  0.48193164     1.35200
V472        V  0.27149239  0.74093878  0.44910902     1.35200
C473        C  0.23723725  0.67865042  0.48597667     0.77300
C474        C  0.28707642  0.82189478  0.44511265     0.77400
C475        C  0.19086213  0.72622862  0.44497277     0.77200
C476        C  0.33328767  0.77371853  0.48611332     0.77200
O477        O  0.13186038  0.93889928  0.83123651    -0.71900
O478        O  0.02478490  0.90101832  0.80106275    -0.72100
O479        O  0.05928195  0.86628419  0.83125143    -0.72000
O480        O  0.09736375  0.97364397  0.80099152    -0.72000
O481        O  0.11665444  0.95423766  0.76680970    -0.72000
O482        O  0.07893488  0.84706597  0.79714310    -0.72000
O483        O  0.04428858  0.88163994  0.76694658    -0.71900
O484        O  0.15152699  0.91981350  0.79706659    -0.72100
V485        V  0.07871384  0.91958754  0.81547284     1.35200
V486        V  0.09749248  0.90105702  0.78266960     1.35200
C487        C  0.15957358  0.93503010  0.81949014     0.77300
C488        C  0.01672135  0.88582172  0.77864423     0.77400
C489        C  0.06339479  0.83872586  0.81952662     0.77200
C490        C  0.11246008  0.98178381  0.77848393     0.77200
C491        C  0.27810283  0.53218165  0.06003180     0.80100
N492        N  0.24862257  0.53718823  0.07246969    -0.78200
C493        C  0.25374857  0.54788275  0.09778050     0.82500
N494        N  0.28850559  0.55360689  0.11063471    -0.78200
C495        C  0.31771879  0.54802939  0.09845013     0.82600
N496        N  0.31253718  0.53760326  0.07314073    -0.79900
C497        C  0.24079790  0.46478515  0.86976808     0.80100
N498        N  0.20580557  0.95834904  0.85711244    -0.78200
C499        C  0.19940923  0.94607003  0.83214187     0.82500
N500        N  0.22822480  0.94006151  0.81984972    -0.78200
C501        C  0.26364723  0.94698999  0.83232461     0.82600
N502        N  0.26989405  0.95945902  0.85729970    -0.79900
C503        C  0.97832633  0.73255769  0.06150234     0.80100
N504        N  0.97207350  0.76099576  0.07410976    -0.78200
C505        C  0.46120005  0.75539408  0.09935542     0.82500
N506        N  0.45633393  0.72082529  0.11201706    -0.78200
C507        C  0.46289336  0.69243651  0.09958570     0.82600
N508        N  0.97409012  0.69846484  0.07449615    -0.79900
C509        C  0.03344094  0.75666889  0.86979068     0.80100
N510        N  0.03977651  0.79182824  0.85707961    -0.78200
C511        C  0.05243301  0.79874387  0.83212436     0.82500
N512        N  0.05936450  0.77054054  0.81983702    -0.78200
C513        C  0.05311601  0.73529551  0.83226461     0.82600
N514        N  0.04052300  0.72866198  0.85725733    -0.79900
O515        O  0.39809695  0.53674681  0.16458106    -0.71900
O516        O  0.43753004  0.64459891  0.13484637    -0.72100
O517        O  0.36453706  0.57240819  0.13422211    -0.72000
O518        O  0.47121668  0.60899369  0.16519582    -0.72000
O519        O  0.49087405  0.59001507  0.13098566    -0.72000
O520        O  0.38445106  0.55331526  0.10016979    -0.72000
O521        O  0.45711472  0.62541953  0.10069052    -0.71900
O522        O  0.41796592  0.51768217  0.13050062    -0.72100
V523        V  0.41822904  0.59031229  0.14905980     1.35200
V524        V  0.43723677  0.57196508  0.11628176     1.35200
C525        C  0.40213737  0.50919179  0.15280810     0.77300
C526        C  0.45287676  0.65289325  0.11241019     0.77400
C527        C  0.35684199  0.55768780  0.11165403     0.77200
C528        C  0.99898062  0.60509078  0.15388849     0.77200
C529        C  0.10804594  0.90734592  0.39552560     0.80100
N530        N  0.14367812  0.93486505  0.40819252    -0.78200
C531        C  0.15060477  0.92713593  0.43283999     0.82500
N532        N  0.12205023  0.89128428  0.44479639    -0.78200
C533        C  0.08639455  0.86344363  0.43235447     0.82600
N534        N  0.07958379  0.87137571  0.40765055    -0.79900
C535        C  0.07906388  0.92986039  0.20318564     0.80100
N536        N  0.04386575  0.90089930  0.19074413    -0.78200
C537        C  0.03826189  0.90545311  0.16523173     0.82500
N538        N  0.06765930  0.93962857  0.15218764    -0.78200
C539        C  0.10296620  0.96861005  0.16441169     0.82600
N540        N  0.10833370  0.96375240  0.18986366    -0.79900
C541        C  0.11058763  0.69823120  0.39404257     0.80100
N542        N  0.14532963  0.70417383  0.40702911    -0.78200
C543        C  0.15131888  0.71588147  0.43211002     0.82500
N544        N  0.12265677  0.72236250  0.44424080    -0.78200
C545        C  0.08777244  0.71651512  0.43151121     0.82600
N546        N  0.08198386  0.70476639  0.40637490    -0.79900
C547        C  0.08168545  0.63412556  0.20362876     0.80100
N548        N  0.10952489  0.62740586  0.19060194    -0.78200
C549        C  0.10219495  0.61462646  0.16573333     0.82500
N550        N  0.06667720  0.60839985  0.15376993    -0.78200
C551        C  0.03881135  0.61548214  0.16643367     0.82600
N552        N  0.04627633  0.62818983  0.19139252    -0.79900
O553        O  0.16286613  0.60816783  0.16419370    -0.71900
O554        O  0.23171313  0.57192592  0.13316974    -0.72100
O555        O  0.23095076  0.64394326  0.13389776    -0.72000
O556        O  0.16333877  0.53619250  0.16349513    -0.72000
O557        O  0.12374312  0.51655656  0.12922250    -0.72000
O558        O  0.19032369  0.62510367  0.10008575    -0.72000
O559        O  0.19232068  0.55365992  0.09882299    -0.71900
O560        O  0.12214575  0.58818549  0.13042017    -0.72100
V561        V  0.19645264  0.58964471  0.14799934     1.35200
V562        V  0.15790450  0.57119858  0.11528388     1.35200
C563        C  0.13043982  0.60367946  0.15278611     0.77300
C564        C  0.22437657  0.55762539  0.11051925     0.77400
C565        C  0.22230788  0.65272002  0.11189648     0.77200
C566        C  0.13145664  0.50844516  0.15167745     0.77200
O567        O  0.99834313  0.77928555  0.49754300    -0.71900
O568        O  0.06692381  0.74246546  0.46654917    -0.72100
O569        O  0.06637392  0.81465000  0.46688491    -0.72000
O570        O  0.99883983  0.70723082  0.49715469    -0.72000
O571        O  0.45897173  0.68698342  0.46265869    -0.72000
O572        O  0.02605147  0.79526998  0.43294037    -0.72000
O573        O  0.02685670  0.72315686  0.43249389    -0.71900
O574        O  0.45792456  0.75895743  0.46342499    -0.72100
V575        V  0.03187647  0.76054769  0.48133876     1.35200
V576        V  0.49327316  0.74136846  0.44834431     1.35200
C577        C  0.46575476  0.77376479  0.48598282     0.77300
C578        C  0.05901953  0.72727012  0.44411224     0.77400
C579        C  0.05809284  0.82302345  0.44464601     0.77200
C580        C  0.46720757  0.67873525  0.48495514     0.77200
C581        C  0.41136358  0.79615011  0.53757900     0.80100
N582        N  0.37705412  0.79140226  0.52468389    -0.78200
C583        C  0.37238519  0.78291226  0.49911161     0.82500
N584        N  0.40182463  0.77822998  0.48647158    -0.78200
C585        C  0.43646674  0.78324620  0.49914378     0.82600
N586        N  0.44119787  0.79224534  0.52474731    -0.79900
C587        C  0.43463693  0.85732457  0.72814347     0.80100
N588        N  0.40639238  0.86374711  0.74097518    -0.78200
C589        C  0.41310652  0.87625506  0.76594559     0.82500
N590        N  0.44846191  0.88258017  0.77821686    -0.78200
C591        C  0.47670400  0.87586041  0.76575002     0.82600
N592        N  0.46982248  0.86351840  0.74075920    -0.79900
O593        O  0.35270545  0.88340683  0.76697962    -0.71900
O594        O  0.28440393  0.92083150  0.79745112    -0.72100
O595        O  0.35270617  0.95585739  0.76715081    -0.72000
O596        O  0.28437914  0.84841537  0.79742505    -0.72000
O597        O  0.32426519  0.86814541  0.83156454    -0.72000
O598        O  0.39294536  0.97520077  0.80113407    -0.72000
O599        O  0.32458996  0.94061517  0.83146386    -0.71900
O600        O  0.39265117  0.90254805  0.80109251    -0.72100
V601        V  0.31933621  0.90249834  0.78291602     1.35200
V602        V  0.35787045  0.92124266  0.81563619     1.35200
C603        C  0.38469413  0.88728740  0.77866110     0.77300
C604        C  0.29241594  0.93633677  0.81979100     0.77400
C605        C  0.38480579  0.98354775  0.77886183     0.77200
C606        C  0.29212597  0.84043617  0.81991701     0.77200
C607        C  0.41532857  0.59819822  0.53579355     0.80100
N608        N  0.38000351  0.56975057  0.52331500    -0.78200
C609        C  0.37416687  0.57523925  0.49802732     0.82500
N610        N  0.40327628  0.61007314  0.48535930    -0.78200
C611        C  0.43864372  0.63880445  0.49770961     0.82600
N612        N  0.44452051  0.63284541  0.52297098    -0.79900
C613        C  0.43679751  0.56369065  0.72778863     0.80100
N614        N  0.47195546  0.59235205  0.74046839    -0.78200
C615        C  0.47829730  0.58634168  0.76562707     0.82500
N616        N  0.44955550  0.55118623  0.77816322    -0.78200
C617        C  0.41420098  0.52255483  0.76583651     0.82600
N618        N  0.40804528  0.52891365  0.74073845    -0.79900
O619        O  0.39760790  0.84479264  0.16457746    -0.71900
O620        O  0.43565769  0.77656060  0.13458007    -0.72100
O621        O  0.47027445  0.84511598  0.16469858    -0.72000
O622        O  0.36298693  0.77653267  0.13445269    -0.72000
O623        O  0.38231376  0.81706482  0.10054074    -0.72000
O624        O  0.99041232  0.88425872  0.13015140    -0.72000
O625        O  0.45421637  0.81584944  0.10012738    -0.71900
O626        O  0.41811078  0.88525945  0.13063727    -0.72100
V627        V  0.41702503  0.81149570  0.14890565     1.35200
V628        V  0.43586241  0.84984089  0.11604865     1.35200
C629        C  0.40210149  0.87703111  0.15289308     0.77300
C630        C  0.45048725  0.78405892  0.11201704     0.77400
C631        C  0.99829464  0.87670941  0.15270621     0.77200
C632        C  0.35455865  0.78501042  0.11228000     0.77200
C633        C  0.31206723  0.90136253  0.39390288     0.80100
N634        N  0.30673837  0.93031335  0.40666517    -0.78200
C635        C  0.29664358  0.92505786  0.43207980     0.82500
N636        N  0.29142709  0.89033234  0.44474637    -0.78200
C637        C  0.29724578  0.86149771  0.43226749     0.82600
N638        N  0.30742159  0.86708137  0.40687134    -0.79900
C639        C  0.37015785  0.92634592  0.20259174     0.80100
N640        N  0.37727201  0.96186654  0.19002977    -0.78200
C641        C  0.39067801  0.96908512  0.16522711     0.82500
N642        N  0.39767361  0.94088222  0.15299433    -0.78200
C643        C  0.39073927  0.90533765  0.16533742     0.82600
N644        N  0.37731045  0.89833925  0.19015351    -0.79900
O645        O  0.25414051  0.55515398  0.46381573    -0.71900
O646        O  0.29003381  0.48564358  0.43289902    -0.72100
O647        O  0.21853679  0.98718339  0.43375485    -0.72000
O648        O  0.32615561  0.55416931  0.46304110    -0.72000
O649        O  0.30627026  0.01479107  0.49789155    -0.72000
O650        O  0.19904066  0.94645110  0.46757895    -0.72000
O651        O  0.27162975  0.94643950  0.46747927    -0.71900
O652        O  0.23383988  0.01452367  0.49805362    -0.72100
V653        V  0.27178004  0.51970576  0.44899983     1.35200
V654        V  0.25308549  0.98128850  0.48206773     1.35200
C655        C  0.23870864  0.54714506  0.48624585     0.77300
C656        C  0.28646083  0.95407327  0.44491104     0.77400
C657        C  0.19078349  0.95499175  0.44538087     0.77200
C658        C  0.33426575  0.54648645  0.48548821     0.77200
C659        C  0.21016636  0.59816669  0.53686645     0.80100
N660        N  0.21532599  0.63273162  0.52397747    -0.78200
C661        C  0.22694471  0.63904536  0.49880734     0.82500
N662        N  0.23366416  0.61071701  0.48648258    -0.78200
C663        C  0.22808368  0.57582247  0.49904201     0.82600
N664        N  0.21652852  0.56975454  0.52423276    -0.79900
C665        C  0.13934712  0.56236425  0.72694824     0.80100
N666        N  0.13405487  0.59136978  0.73973069    -0.78200
C667        C  0.12331117  0.58575576  0.76507937     0.82500
N668        N  0.11754314  0.55076751  0.77765187    -0.78200
C669        C  0.12331415  0.52192181  0.76519446     0.82600
N670        N  0.13405990  0.52779893  0.73989240    -0.79900
O671        O  0.11739316  0.64696707  0.76643580    -0.71900
O672        O  0.08040792  0.71547199  0.79737435    -0.72100
O673        O  0.15267073  0.71490465  0.79721570    -0.72000
O674        O  0.04527317  0.64776489  0.76670020    -0.72000
O675        O  0.02556455  0.60695314  0.80048242    -0.72000
O676        O  0.13247437  0.67480970  0.83131482    -0.72000
O677        O  0.05993524  0.67464783  0.83114881    -0.71900
O678        O  0.09809679  0.60685910  0.80052489    -0.72100
V679        V  0.09860542  0.68050755  0.78260237     1.35200
V680        V  0.07942717  0.64156995  0.81518932     1.35200
C681        C  0.11315801  0.61472625  0.77800196     0.77300
C682        C  0.06441219  0.70702030  0.81963947     0.77400
C683        C  0.16037151  0.70702713  0.81975034     0.77200
C684        C  0.01741664  0.61552388  0.77826113     0.77200
C685        C  0.16300762  0.60362962  0.60030542    -0.02200
C686        C  0.17931077  0.58576681  0.61778221     0.06400
C687        C  0.20530065  0.57123151  0.60852325    -0.08100
C688        C  0.21558062  0.57459224  0.58233161     0.03900
C689        C  0.19957132  0.59283750  0.56474854    -0.15400
C690        C  0.17353859  0.60738888  0.57413150    -0.08700
C691        C  0.16873866  0.58056186  0.64567311     0.04800
C692        C  0.14554908  0.53988383  0.65586921    -0.09800
C693        C  0.13533293  0.53308396  0.68209373    -0.00200
C694        C  0.14900990  0.56767147  0.69887902    -0.00300
C695        C  0.17203085  0.60845033  0.68849858    -0.13400
C696        C  0.18208336  0.61511481  0.66221453     0.00100
C697        C  0.10925670  0.49027344  0.69078626     0.39400
C698        C  0.20698422  0.65763848  0.65280159     0.36100
C699        C  0.13440235  0.61710937  0.60862340     0.35800
C700        C  0.24384128  0.56044550  0.57438238     0.36600
N701        N  0.08523744  0.95592370  0.69756837    -0.44200
N702        N  0.22681588  0.69173018  0.64525162    -0.44700
N703        N  0.26645578  0.54903436  0.56808026    -0.42000
N704        N  0.11146120  0.62790210  0.61527529    -0.43500
H705        H  0.16076225  0.62115153  0.56088750     0.12700
H706        H  0.21788672  0.55746401  0.62191841     0.09200
H707        H  0.13495319  0.51325296  0.64314385     0.10200
H708        H  0.18281669  0.63531329  0.70102849     0.16100
C709        C  0.36718648  0.95401209  0.27219659    -0.02200
C710        C  0.34428179  0.91433447  0.28410043     0.06400
C711        C  0.32892382  0.87814401  0.26905932    -0.08100
C712        C  0.33641472  0.88100722  0.24245181     0.03900
C713        C  0.35942124  0.92088046  0.23043317    -0.15400
C714        C  0.37425132  0.95698163  0.24562781    -0.08700
C715        C  0.33583974  0.91022086  0.31220664     0.04800
C716        C  0.31064752  0.92511117  0.32226648    -0.09800
C717        C  0.30269321  0.92291210  0.34873899    -0.00200
C718        C  0.32024387  0.90543931  0.36575245    -0.00300
C719        C  0.34503282  0.89003432  0.35550992    -0.13400
C720        C  0.35304884  0.89243628  0.32901624     0.00100
C721        C  0.27499779  0.93722223  0.35758198     0.39400
C722        C  0.37996312  0.87757208  0.31958984     0.36100
C723        C  0.38518197  0.99210585  0.28704110     0.35800
C724        C  0.31932824  0.84255606  0.22803384     0.36600
N725        N  0.25275249  0.94867014  0.36458769    -0.44200
N726        N  0.40156475  0.86573536  0.31198454    -0.44700
N727        N  0.30567642  0.81167069  0.21655381    -0.42000
N728        N  0.40043455  0.52207409  0.29942438    -0.43500
H729        H  0.39254481  0.98780356  0.23687865     0.12700
H730        H  0.31096046  0.84756177  0.27817570     0.09200
H731        H  0.29697215  0.93835290  0.30929177     0.10200
H732        H  0.35867089  0.87653126  0.36829077     0.16100
C733        C  0.38726572  0.58264475  0.60629443    -0.02200
C734        C  0.42423768  0.58744523  0.61782743     0.06400
C735        C  0.45844946  0.59552627  0.60219095    -0.08100
C736        C  0.45624302  0.59896010  0.57535146     0.03000
C737        C  0.41920137  0.59403411  0.56385246    -0.15400
C738        C  0.38496750  0.58574002  0.57950016    -0.08700
C739        C  0.42706137  0.58226219  0.64604464     0.04800
C740        C  0.40106440  0.54284459  0.65720902    -0.09800
C741        C  0.40308257  0.53591857  0.68363376    -0.00200
C742        C  0.43166293  0.56928414  0.69966747    -0.00300
C743        C  0.45746029  0.60894357  0.68824018    -0.13400
C744        C  0.45550330  0.61555166  0.66173169     0.00100
C745        C  0.36987934  0.99854703  0.69462316     0.39400
C746        C  0.97942451  0.65997169  0.65213802     0.36100
C747        C  0.35168075  0.57550308  0.62159663     0.35800
C748        C  0.49152067  0.60555867  0.55995357     0.36600
N749        N  0.34694817  0.96496963  0.70204048    -0.44200
N750        N  0.00134107  0.69295095  0.64351308    -0.44700
N751        N  0.01595655  0.60781262  0.54954255    -0.42000
N752        N  0.32317661  0.56985526  0.63383581    -0.43500
H753        H  0.35660296  0.58243444  0.57078081     0.12700
H754        H  0.48665976  0.59853291  0.61097028     0.09200
H755        H  0.37946906  0.51708373  0.64504024     0.10200
H756        H  0.47948721  0.63505986  0.69998933     0.16100
C757        C  0.45453373  0.84557432  0.60231705    -0.02200
C758        C  0.42133308  0.81936862  0.61898927     0.06400
C759        C  0.38506229  0.78513182  0.60884356    -0.08100
C760        C  0.38148306  0.77670118  0.58240376     0.03900
C761        C  0.41470118  0.80297235  0.56567806    -0.15400
C762        C  0.45118357  0.83692685  0.57589209    -0.08700
C763        C  0.42369447  0.82736901  0.64706299     0.04800
C764        C  0.39853185  0.84192098  0.65752546    -0.09800
C765        C  0.40085506  0.85139079  0.68379250    -0.00200
C766        C  0.42878165  0.84588233  0.70027727    -0.00300
C767        C  0.45319764  0.83026898  0.68959304    -0.13400
C768        C  0.45082116  0.82101473  0.66332988     0.00100
C769        C  0.37515368  0.86799535  0.69272713     0.39400
C770        C  0.47621897  0.80464232  0.65349227     0.36100
C771        C  0.00085148  0.87318781  0.61254838     0.35800
C772        C  0.34409159  0.74007923  0.57306804     0.36600
N773        N  0.35445071  0.88126896  0.69975076    -0.44200
N774        N  0.49653774  0.79152816  0.64554791    -0.44700
N775        N  0.31420889  0.71063714  0.56563708    -0.42000
N776        N  0.03351236  0.89729891  0.62066255    -0.43500
H777        H  0.98282873  0.85013625  0.56365616     0.12700
H778        H  0.35961336  0.76481689  0.62167517     0.09200
H779        H  0.37756157  0.84669853  0.64494810     0.10200
H780        H  0.47441915  0.82525683  0.70174698     0.16100
C781        C  0.14133524  0.69737460  0.32471632    -0.02200
C782        C  0.10201821  0.67527656  0.31225927     0.06400
C783        C  0.06525612  0.65952240  0.32690354    -0.08100
C784        C  0.06707288  0.66596651  0.35355466     0.03900
C785        C  0.10644725  0.68884004  0.36604793    -0.15400
C786        C  0.14322820  0.70399198  0.35132429    -0.08700
C787        C  0.09839641  0.66677237  0.28416328     0.04800
C788        C  0.11389683  0.64197315  0.27437360    -0.09800
C789        C  0.10926720  0.63127828  0.24827342    -0.00200
C790        C  0.08867704  0.64564546  0.23130952    -0.00300
C791        C  0.07335798  0.67068039  0.24119948    -0.13400
C792        C  0.07812452  0.68136945  0.26733496     0.00100
C793        C  0.12400541  0.60369155  0.23994956     0.39400
C794        C  0.06239769  0.70773112  0.27640623     0.36100
C795        C  0.18015989  0.71423766  0.31056839     0.35800
C796        C  0.52833593  0.64565367  0.36741835     0.36600
N797        N  0.13579531  0.58153569  0.23336993    -0.44200
N798        N  0.04976433  0.72880909  0.28371595    -0.44700
N799        N  0.49706313  0.63013285  0.37868723    -0.42000
N800        N  0.21132199  0.72765232  0.29930772    -0.43500
H801        H  0.17373416  0.72174678  0.36053406     0.12700
H802        H  0.03495838  0.64157013  0.31746987     0.09200
H803        H  0.12884934  0.63008325  0.28736701     0.10200
H804        H  0.05772298  0.68211734  0.22844732     0.16100
C805        C  0.13679397  0.93818661  0.32578862    -0.02200
C806        C  0.09733805  0.92456699  0.31410138     0.06400
C807        C  0.06116728  0.90624466  0.32945840    -0.08100
C808        C  0.06370787  0.90088943  0.35608053     0.03900
C809        C  0.10321882  0.91434243  0.36779862    -0.15400
C810        C  0.13943431  0.93351956  0.35241063    -0.08700
C811        C  0.09271818  0.92664334  0.28574664     0.04800
C812        C  0.06943378  0.88903971  0.27222460    -0.09800
C813        C  0.06465300  0.88903643  0.24540724    -0.00200
C814        C  0.08363444  0.92743672  0.23155163    -0.00300
C815        C  0.10678782  0.96508301  0.24526072    -0.13400
C816        C  0.11109739  0.96502197  0.27208388     0.00100
C817        C  0.04106962  0.84906771  0.23274051     0.39400
C818        C  0.13350195  0.00477218  0.28515847     0.36100
C819        C  0.17476243  0.95496317  0.31076530     0.35800
C820        C  0.02539785  0.88212691  0.37084295     0.36600
N821        N  0.02205915  0.81695219  0.22268627    -0.44200
N822        N  0.15156617  0.03670217  0.29552674    -0.44700
N823        N  0.49435133  0.86807372  0.38281712    -0.42000
N824        N  0.20454605  0.46727360  0.29874721    -0.43500
H825        H  0.16993230  0.94346871  0.36104570     0.12700
H826        H  0.03074909  0.89570508  0.32051667     0.09200
H827        H  0.05529042  0.85946422  0.28269677     0.10200
H828        H  0.12089774  0.99489755  0.23508125     0.16100
C829        C  0.52913784  0.78608297  0.93877489    -0.02200
C830        C  0.01056756  0.74643390  0.95176839     0.06400
C831        C  0.99787545  0.71003886  0.93735279    -0.08100
C832        C  0.00408653  0.71221446  0.91062144     0.03900
C833        C  0.02357040  0.75165579  0.89782611    -0.15400
C834        C  0.53541970  0.78823662  0.91211678    -0.08700
C835        C  0.00284274  0.74278228  0.97996202     0.04800
C836        C  0.47490328  0.75529345  0.98974929    -0.09800
C837        C  0.46662308  0.75238780  0.01619812    -0.00200
C838        C  0.98669867  0.73693059  0.03343339    -0.00300
C839        C  0.01432478  0.72488827  0.02340976    -0.13400
C840        C  0.02271866  0.72795089  0.99693783     0.00100
C841        C  0.43646115  0.76354775  0.02501528     0.39400
C842        C  0.05268490  0.71683893  0.98772743     0.36100
C843        C  0.54352466  0.82461388  0.95275120     0.35800
C844        C  0.98898292  0.67333691  0.89692611     0.36600
N845        N  0.41225225  0.77246178  0.03201988    -0.44200
N846        N  0.07678663  0.70803788  0.98036186    -0.44700
N847        N  0.97676683  0.64206161  0.88606087    -0.42000
N848        N  0.55499891  0.85546184  0.96396352    -0.43500
H849        H  0.55084607  0.81876928  0.90276414     0.12700
H850        H  0.98270295  0.67975850  0.94704043     0.09200
H851        H  0.45940241  0.76653882  0.97673552     0.10200
H852        H  0.02985896  0.71358692  0.03634536     0.16100
C853        C  0.22779188  0.48210988  0.99652421    -0.02200
C854        C  0.26196418  0.50158985  0.97934252     0.06400
C855        C  0.30231723  0.03231014  0.98883976    -0.08100
C856        C  0.30833240  0.04236352  0.01504523     0.03900
C857        C  0.27340017  0.52233838  0.03220762    -0.15400
C858        C  0.23367242  0.49287617  0.02264343    -0.08700
C859        C  0.25687394  0.49205874  0.95133312     0.04800
C860        C  0.22879421  0.49938400  0.93691621    -0.09800
C861        C  0.22298907  0.49103404  0.91047371    -0.00200
C862        C  0.24619401  0.47540921  0.89772948    -0.00300
C863        C  0.27576102  0.96994885  0.91218634    -0.13400
C864        C  0.28123905  0.97787663  0.93866709     0.00100
C865        C  0.19331809  0.49943704  0.89719214     0.39400
C866        C  0.31023232  0.96919384  0.95256187     0.36100
C867        C  0.18670060  0.45013208  0.98796229     0.35800
C868        C  0.34950043  0.07449811  0.02345899     0.36600
N869        N  0.16931975  0.50602760  0.88670943    -0.44200
N870        N  0.33354375  0.96237424  0.96371138    -0.44700
N871        N  0.38252633  0.10025257  0.03011435    -0.42000
N872        N  0.15378837  0.42447849  0.98109244    -0.43500
H873        H  0.20727322  0.47759060  0.03572884     0.12700
H874        H  0.32845724  0.04835936  0.97563043     0.09200
H875        H  0.21135080  0.51187550  0.94642572     0.10200
H876        H  0.29369362  0.95781034  0.90293197     0.16100
C877        C  0.29642920  0.76814677  0.99316390    -0.02200
C878        C  0.25636955  0.75137834  0.98173920     0.06400
C879        C  0.22058683  0.73156190  0.99734166    -0.08100
C880        C  0.22420637  0.72787090  0.02405566     0.03900
C881        C  0.26439159  0.74391196  0.03549796    -0.15400
C882        C  0.30011906  0.76452904  0.01978708    -0.08700
C883        C  0.25128578  0.75388588  0.95349300     0.04800
C884        C  0.23448129  0.71711511  0.93890372    -0.09800
C885        C  0.23071818  0.71841221  0.91202413    -0.00200
C886        C  0.24372702  0.75716034  0.89935754    -0.00300
C887        C  0.26035453  0.79387700  0.91413325    -0.13400
C888        C  0.26398137  0.79248347  0.94095466     0.00100
C889        C  0.21526835  0.67988370  0.89789158     0.39400
C890        C  0.28019091  0.83090213  0.95531697     0.36100
C891        C  0.33417126  0.78794287  0.97784641     0.35800
C892        C  0.18629612  0.70856029  0.03923174     0.36600
N893        N  0.20305282  0.64900823  0.88657836    -0.44200
N894        N  0.29321669  0.86156785  0.96695044    -0.44700
N895        N  0.15588258  0.69320406  0.05136099    -0.42000
N896        N  0.36444304  0.80387519  0.96560084    -0.43500
H897        H  0.33116279  0.77670007  0.02817214     0.12700
H898        H  0.18974204  0.71908396  0.98859092     0.09200
H899        H  0.22502335  0.68742284  0.94853311     0.10200
H900        H  0.26993699  0.82377605  0.90475389     0.16100
C901        C  0.77003248  0.23785513  0.06323564     0.80100
N902        N  0.74226496  0.20170894  0.07540009    -0.78200
C903        C  0.74992957  0.19356377  0.09980809     0.82500
N904        N  0.78580943  0.22142068  0.11201090    -0.78200
C905        C  0.81382479  0.25751175  0.10003342     0.82600
N906        N  0.80605432  0.26545600  0.07559186    -0.79900
C907        C  0.74003782  0.26076543  0.87111083     0.80100
N908        N  0.76882936  0.29564403  0.85826539    -0.78200
C909        C  0.76372946  0.30087449  0.83279940     0.82500
N910        N  0.72914775  0.27141514  0.82020212    -0.78200
C911        C  0.70021219  0.23640344  0.83279904     0.82600
N912        N  0.70558952  0.23133723  0.85827911    -0.79900
O913        O  0.73306747  0.20638842  0.49793212    -0.71900
O914        O  0.77220720  0.31398382  0.46791307    -0.72100
O915        O  0.69912582  0.24171535  0.46761652    -0.72000
O916        O  0.80598470  0.27828625  0.49810339    -0.72000
O917        O  0.82560885  0.25948501  0.46379545    -0.72000
O918        O  0.71855427  0.22196675  0.43363900    -0.72000
O919        O  0.79113317  0.29442799  0.43363873    -0.71900
O920        O  0.75288316  0.18710563  0.46392222    -0.72100
V921        V  0.75297918  0.25975107  0.48221680     1.35200
V922        V  0.77166875  0.24113461  0.44941576     1.35200
C923        C  0.73740961  0.17889437  0.48633436     0.77300
C924        C  0.78725923  0.32210257  0.44540755     0.77400
C925        C  0.69102115  0.22634530  0.44521851     0.77200
C926        C  0.83350425  0.27401922  0.48637668     0.77200
O927        O  0.63218767  0.43936095  0.83079367    -0.71900
O928        O  0.52503090  0.40151471  0.80080376    -0.72100
O929        O  0.55959056  0.36682331  0.83092987    -0.72000
O930        O  0.59773537  0.47411831  0.80052829    -0.72000
O931        O  0.61667785  0.45446143  0.76630697    -0.72000
O932        O  0.57910840  0.34744645  0.79683316    -0.72000
O933        O  0.54414364  0.38177313  0.76668186    -0.71900
O934        O  0.65172268  0.42018598  0.79660883    -0.72100
V935        V  0.57902273  0.42009182  0.81508754     1.35200
V936        V  0.59756622  0.40136034  0.78227343     1.35200
C937        C  0.65982379  0.43536948  0.81905539     0.77300
C938        C  0.51661115  0.38588344  0.77850312     0.77400
C939        C  0.56367088  0.33921020  0.81924033     0.77200
C940        C  0.61273246  0.48214580  0.77799152     0.77200
C941        C  0.77867943  0.03246787  0.05977178     0.80100
N942        N  0.74911477  0.03737568  0.07218722    -0.78200
C943        C  0.75426232  0.04821236  0.09747606     0.82500
N944        N  0.78911795  0.05417603  0.11031848    -0.78200
C945        C  0.81841513  0.04871442  0.09814862     0.82600
N946        N  0.81320626  0.03813370  0.07287079    -0.79900
C947        C  0.74057973  0.96405401  0.86970486     0.80100
N948        N  0.70582556  0.45823364  0.85682556    -0.78200
C949        C  0.69956805  0.44616643  0.83180000     0.82500
N950        N  0.72837792  0.44009316  0.81955117    -0.78200
C951        C  0.76365837  0.44677243  0.83211048     0.82600
N952        N  0.76975941  0.45903134  0.85712871    -0.79900
C953        C  0.47833338  0.23272645  0.06140643     0.80100
N954        N  0.47205865  0.26108166  0.07409221    -0.78200
C955        C  0.96122358  0.25580194  0.09935903     0.82500
N956        N  0.95666010  0.22135322  0.11202190    -0.78200
C957        C  0.96347342  0.19313858  0.09958143     0.82600
N958        N  0.47418049  0.19860998  0.07435507    -0.79900
C959        C  0.53383521  0.25742078  0.86965682     0.80100
N960        N  0.54013727  0.29249826  0.85686526    -0.78200
C961        C  0.55279612  0.29929476  0.83191152     0.82500
N962        N  0.55978133  0.27104703  0.81970593    -0.78200
C963        C  0.55357263  0.23587167  0.83222471     0.82600
N964        N  0.54096103  0.22936956  0.85721418    -0.79900
O965        O  0.89837021  0.03712924  0.16424298    -0.71900
O966        O  0.93825186  0.14523725  0.13481497    -0.72100
O967        O  0.86518317  0.07315211  0.13393560    -0.72000
O968        O  0.97158393  0.10922550  0.16517486    -0.72000
O969        O  0.99142881  0.09048454  0.13094523    -0.72000
O970        O  0.88522652  0.05417280  0.09989051    -0.72000
O971        O  0.95794249  0.12622025  0.10063546    -0.71900
O972        O  0.91846231  0.01824641  0.13018083    -0.72100
V973        V  0.91874722  0.09082778  0.14888889     1.35200
V974        V  0.93791088  0.07265062  0.11610566     1.35200
C975        C  0.90242648  0.00961632  0.15242920     0.77300
C976        C  0.95363101  0.15362455  0.11238703     0.77400
C977        C  0.85756466  0.05848758  0.11135594     0.77200
C978        C  0.49924917  0.10498302  0.15379577     0.77200
C979        C  0.60790584  0.40696072  0.39540746     0.80100
N980        N  0.64349365  0.43459702  0.40805545    -0.78200
C981        C  0.65041088  0.42704685  0.43274029     0.82500
N982        N  0.62189919  0.39122441  0.44475336    -0.78200
C983        C  0.58627659  0.36324870  0.43232961     0.82600
N984        N  0.57946178  0.37102936  0.40758481    -0.79900
C985        C  0.57894625  0.43039269  0.20308547     0.80100
N986        N  0.54388168  0.40132353  0.19060289    -0.78200
C987        C  0.53826752  0.40581480  0.16509433     0.82500
N988        N  0.56755104  0.44008916  0.15205831    -0.78200
C989        C  0.60276661  0.46921817  0.16430980     0.82600
N990        N  0.60812902  0.46438538  0.18977777    -0.79900
C991        C  0.61064546  0.19769309  0.39423881     0.80100
N992        N  0.64544757  0.20387774  0.40726715    -0.78200
C993        C  0.65145347  0.21584985  0.43230373     0.82500
N994        N  0.62274449  0.22235803  0.44434123    -0.78200
C995        C  0.58780723  0.21630843  0.43158033     0.82600
N996        N  0.58198702  0.20427573  0.40648597    -0.79900
C997        C  0.58178382  0.13353918  0.20364909     0.80100
N998        N  0.60964020  0.12691015  0.19056714    -0.78200
C999        C  0.60236666  0.11431417  0.16566016     0.82500
N1000       N  0.56689790  0.10820546  0.15369478    -0.78200
C1001       C  0.53901530  0.11521608  0.16639115     0.82600
N1002       N  0.54640922  0.12771474  0.19140048    -0.79900
O1003       O  0.66309995  0.10799668  0.16403082    -0.71900
O1004       O  0.73209734  0.07207180  0.13288428    -0.72100
O1005       O  0.73110740  0.14396857  0.13371472    -0.72000
O1006       O  0.66374247  0.03613856  0.16323575    -0.72000
O1007       O  0.62410875  0.01647763  0.12897971    -0.72000
O1008       O  0.69044846  0.12512191  0.09991632    -0.72000
O1009       O  0.69268536  0.05378281  0.09854668    -0.71900
O1010       O  0.62233659  0.08800809  0.13027655    -0.72100
V1011       V  0.69675065  0.08962541  0.14777191     1.35200
V1012       V  0.65816953  0.07116513  0.11507102     1.35200
C1013       C  0.63063560  0.10346087  0.15265603     0.77300
C1014       C  0.72478977  0.05781995  0.11022306     0.77400
C1015       C  0.72236749  0.15277935  0.11175400     0.77200
C1016       C  0.63183549  0.00839055  0.15143797     0.77200
O1017       O  0.49842456  0.27903801  0.49774254    -0.71900
O1018       O  0.56699613  0.24236841  0.46657017    -0.72100
O1019       O  0.56637329  0.31452884  0.46693164    -0.72000
O1020       O  0.49899643  0.20710701  0.49727840    -0.72000
O1021       O  0.95907777  0.18697792  0.46273892    -0.72000
O1022       O  0.52593720  0.29504981  0.43304049    -0.72000
O1023       O  0.52681799  0.22294802  0.43256709    -0.71900
O1024       O  0.95796876  0.25893359  0.46353379    -0.72100
V1025       V  0.53196621  0.26040987  0.48142882     1.35200
V1026       V  0.99333751  0.24135564  0.44845331     1.35200
C1027       C  0.96587207  0.27384711  0.48606549     0.77300
C1028       C  0.55903285  0.22710529  0.44415009     0.77400
C1029       C  0.55801780  0.32284776  0.44469331     0.77200
C1030       C  0.96732094  0.17874157  0.48503017     0.77200
C1031       C  0.91187152  0.29662975  0.53767610     0.80100
N1032       N  0.87749687  0.29186762  0.52485847    -0.78200
C1033       C  0.87268753  0.28329864  0.49929893     0.82500
N1034       N  0.90203194  0.27851181  0.48660896    -0.78200
C1035       C  0.93671325  0.28350708  0.49922211     0.82600
N1036       N  0.94158663  0.29259993  0.52480677    -0.79900
C1037       C  0.93465315  0.35664868  0.72827207     0.80100
N1038       N  0.90653307  0.36330619  0.74105976    -0.78200
C1039       C  0.91343130  0.37619851  0.76594988     0.82500
N1040       N  0.94886509  0.38268193  0.77819013    -0.78200
C1041       C  0.97700264  0.37575230  0.76576201     0.82600
N1042       N  0.96993113  0.36303561  0.74085118    -0.79900
O1043       O  0.85302752  0.38335043  0.76690357    -0.71900
O1044       O  0.78450088  0.42060601  0.79727007    -0.72100
O1045       O  0.85273264  0.45567130  0.76692335    -0.72000
O1046       O  0.78476903  0.34834032  0.79737149    -0.72000
O1047       O  0.82471643  0.36828717  0.83148392    -0.72000
O1048       O  0.89300346  0.47529696  0.80089383    -0.72000
O1049       O  0.82470952  0.44058902  0.83127174    -0.71900
O1050       O  0.89305767  0.40279939  0.80097970    -0.72100
V1051       V  0.81955045  0.40236933  0.78278026     1.35200
V1052       V  0.85813396  0.42135996  0.81547886     1.35200
C1053       C  0.88506437  0.38736474  0.77859511     0.77300
C1054       C  0.79248351  0.43617023  0.81959509     0.77400
C1055       C  0.88477172  0.48349681  0.77860518     0.77200
C1056       C  0.79259395  0.34048246  0.81987211     0.77200
C1057       C  0.91563778  0.09826669  0.53584977     0.80100
N1058       N  0.88019992  0.06985195  0.52341874    -0.78200
C1059       C  0.87426305  0.07534583  0.49813742     0.82500
N1060       N  0.90337469  0.11014400  0.48544956    -0.78200
C1061       C  0.93882005  0.13881263  0.49775501     0.82600
N1062       N  0.94478517  0.13286523  0.52299152    -0.79900
C1063       C  0.93528585  0.06618727  0.72831587     0.80100
N1064       N  0.97073885  0.09444628  0.74095338    -0.78200
C1065       C  0.97755046  0.08768510  0.76588899     0.82500
N1066       N  0.94901113  0.05221607  0.77822536    -0.78200
C1067       C  0.91348116  0.02392163  0.76592830     0.82600
N1068       N  0.90689734  0.03096729  0.74105927    -0.79900
O1069       O  0.89739847  0.34485100  0.16469763    -0.71900
O1070       O  0.93537867  0.27667164  0.13456383    -0.72100
O1071       O  0.97000414  0.34508672  0.16475532    -0.72000
O1072       O  0.86272093  0.27669827  0.13448142    -0.72000
O1073       O  0.88207367  0.31733340  0.10061547    -0.72000
O1074       O  0.49025798  0.38425771  0.13007907    -0.72000
O1075       O  0.95397602  0.31608715  0.10016475    -0.71900
O1076       O  0.91789880  0.38541232  0.13079796    -0.72100
V1077       V  0.91675857  0.31156932  0.14895158     1.35200
V1078       V  0.93561961  0.35002580  0.11614189     1.35200
C1079       C  0.90194107  0.37714672  0.15306614     0.77300
C1080       C  0.95029283  0.28429199  0.11202352     0.77400
C1081       C  0.49833653  0.37684088  0.15261195     0.77200
C1082       C  0.85430222  0.28526036  0.11233019     0.77200
C1083       C  0.81277389  0.40171716  0.39424695     0.80100
N1084       N  0.80719788  0.43056926  0.40692547    -0.78200
C1085       C  0.79672497  0.42520314  0.43227335     0.82500
N1086       N  0.79142616  0.39047083  0.44497662    -0.78200
C1087       C  0.79750977  0.36173387  0.43257869     0.82600
N1088       N  0.80802612  0.36742254  0.40723904    -0.79900
C1089       C  0.87076524  0.42673690  0.20299351     0.80100
N1090       N  0.87771162  0.46220599  0.19043334    -0.78200
C1091       C  0.89071189  0.46925687  0.16554362     0.82500
N1092       N  0.89751171  0.44097826  0.15324541    -0.78200
C1093       C  0.89074362  0.40550052  0.16559346     0.82600
N1094       N  0.87769031  0.39864250  0.19048089    -0.79900
O1095       O  0.75402745  0.05545067  0.46410564    -0.71900
O1096       O  0.78998094  0.98629976  0.43285689    -0.72100
O1097       O  0.71832556  0.48714539  0.43353923    -0.72000
O1098       O  0.82609127  0.05456493  0.46322074    -0.72000
O1099       O  0.80614751  0.51511871  0.49763555    -0.72000
O1100       O  0.69880744  0.44675903  0.46752025    -0.72000
O1101       O  0.77132232  0.44659075  0.46747579    -0.71900
O1102       O  0.73381490  0.51511047  0.49776943    -0.72100
V1103       V  0.77169689  0.02016296  0.44914466     1.35200
V1104       V  0.75290368  0.48163876  0.48191729     1.35200
C1105       C  0.73866416  0.04734126  0.48654718     0.77300
C1106       C  0.78629561  0.45415282  0.44494662     0.77400
C1107       C  0.69056472  0.45506587  0.44525653     0.77200
C1108       C  0.83426504  0.04670908  0.48561386     0.77200
C1109       C  0.71045418  0.09846962  0.53727184     0.80100
N1110       N  0.71559172  0.13303901  0.52439128    -0.78200
C1111       C  0.72709400  0.13929792  0.49919645     0.82500
N1112       N  0.73368557  0.11090786  0.48685414    -0.78200
C1113       C  0.72811701  0.07601516  0.49940644     0.82600
N1114       N  0.71671403  0.07000443  0.52462069    -0.79900
C1115       C  0.64048234  0.06253996  0.72765002     0.80100
N1116       N  0.63484662  0.09140924  0.74035167    -0.78200
C1117       C  0.62363610  0.08565469  0.76562987     0.82500
N1118       N  0.61761805  0.05057279  0.77821454    -0.78200
C1119       C  0.62364664  0.02182372  0.76583443     0.82600
N1120       N  0.63497139  0.02794386  0.74064061    -0.79900
O1121       O  0.61762540  0.14684137  0.76677703    -0.71900
O1122       O  0.58075162  0.21568937  0.79741267    -0.72100
O1123       O  0.65298338  0.21503539  0.79732176    -0.72000
O1124       O  0.54551925  0.14768753  0.76698016    -0.72000
O1125       O  0.52581136  0.10716838  0.80089616    -0.72000
O1126       O  0.63284083  0.17515613  0.83151743    -0.72000
O1127       O  0.56038695  0.17518069  0.83132678    -0.71900
O1128       O  0.59828902  0.10694407  0.80095753    -0.72100
V1129       V  0.59888202  0.18054361  0.78279452     1.35200
V1130       V  0.57974084  0.14186472  0.81549660     1.35200
C1131       C  0.61337757  0.11466329  0.77843856     0.77300
C1132       C  0.56483947  0.20746588  0.81970171     0.77400
C1133       C  0.66073004  0.20726693  0.81986906     0.77200
C1134       C  0.51765616  0.11556339  0.77863190     0.77200
C1135       C  0.66287972  0.10306826  0.60073703    -0.02200
C1136       C  0.68027670  0.08635737  0.61829472     0.06400
C1137       C  0.70697635  0.07268086  0.60900305    -0.08100
C1138       C  0.71688657  0.07578785  0.58276421     0.03900
C1139       C  0.70006811  0.09321185  0.56517227    -0.15400
C1140       C  0.67333307  0.10689674  0.57454287    -0.08700
C1141       C  0.66989653  0.08106624  0.64625136     0.04800
C1142       C  0.64983905  0.04050096  0.65682192    -0.09800
C1143       C  0.63994924  0.03354207  0.68308109    -0.00200
C1144       C  0.65052737  0.06793074  0.69957422    -0.00300
C1145       C  0.67064730  0.10860872  0.68883437    -0.13400
C1146       C  0.68057308  0.11541739  0.66253229     0.00100
C1147       C  0.61765201  0.99055859  0.69206213     0.39400
C1148       C  0.70271278  0.15799997  0.65288186     0.36100
C1149       C  0.63303583  0.11502241  0.60892738     0.35800
C1150       C  0.74541063  0.06202119  0.57473195     0.36600
N1151       N  0.58532331  0.45633890  0.69718878    -0.44200
N1152       N  0.72029079  0.19213298  0.64514994    -0.44700
N1153       N  0.76814911  0.05081313  0.56834826    -0.42000
N1154       N  0.60909908  0.12460220  0.61545447    -0.43500
H1155       H  0.65982921  0.11987579  0.56125172     0.12700
H1156       H  0.72029450  0.05963626  0.62239794     0.09200
H1157       H  0.64147346  0.01398738  0.64435073     0.10200
H1158       H  0.67926470  0.13538975  0.70108839     0.16100
C1159       C  0.86892703  0.45441451  0.27272740    -0.02200
C1160       C  0.84556054  0.41473408  0.28455824     0.06400
C1161       C  0.82965525  0.37856654  0.26945381    -0.08100
C1162       C  0.83696971  0.38145575  0.24282919     0.03900
C1163       C  0.86035914  0.42133022  0.23087103    -0.15400
C1164       C  0.87583185  0.45741931  0.24613927    -0.08700
C1165       C  0.83701338  0.41061329  0.31263721     0.04800
C1166       C  0.81194685  0.42569649  0.32262251    -0.09800
C1167       C  0.80383510  0.42347015  0.34906625    -0.00200
C1168       C  0.82116331  0.40583862  0.36613025    -0.00300
C1169       C  0.84584243  0.39025026  0.35595967    -0.13400
C1170       C  0.85394877  0.39261003  0.32948166     0.00100
C1171       C  0.77616412  0.43787302  0.35781547     0.39400
C1172       C  0.88059961  0.37740080  0.32009923     0.36100
C1173       C  0.88746126  0.49243375  0.28766586     0.35800
C1174       C  0.81924618  0.34305073  0.22831693     0.36600
N1175       N  0.75392909  0.44937660  0.36475362    -0.44200
N1176       N  0.90197421  0.36526649  0.31252990    -0.44700
N1177       N  0.80508080  0.31220740  0.21675388    -0.42000
N1178       N  0.89908978  0.02284017  0.29858746    -0.43500
H1179       H  0.89443890  0.48822006  0.23741946     0.12700
H1180       H  0.81134394  0.34799336  0.27852486     0.09200
H1181       H  0.79846584  0.43908157  0.30960612     0.10200
H1182       H  0.85927608  0.37658832  0.36877761     0.16100
C1183       C  0.88728990  0.08415456  0.60624746    -0.02200
C1184       C  0.92425868  0.08942588  0.61808307     0.06400
C1185       C  0.95868368  0.09745025  0.60264093    -0.08100
C1186       C  0.95663192  0.10029844  0.57573328     0.03000
C1187       C  0.91942741  0.09452028  0.56396275    -0.15400
C1188       C  0.88505960  0.08636524  0.57941164    -0.08700
C1189       C  0.92667972  0.08463241  0.64641019     0.04800
C1190       C  0.89849997  0.04617720  0.65792815    -0.09800
C1191       C  0.89921103  0.03980601  0.68451477    -0.00200
C1192       C  0.92990714  0.07219981  0.70026346    -0.00300
C1193       C  0.95769950  0.11105771  0.68853309    -0.13400
C1194       C  0.95607843  0.11754357  0.66196816     0.00100
C1195       C  0.86968223  0.49786985  0.69439851     0.39400
C1196       C  0.48003361  0.16095257  0.65289069     0.36100
C1197       C  0.85166191  0.07760636  0.62128508     0.35800
C1198       C  0.99234809  0.10747785  0.56057394     0.36600
N1199       N  0.84675545  0.46435394  0.70191455    -0.44200
N1200       N  0.50214637  0.19399545  0.64441131    -0.44700
N1201       N  0.51600072  0.10996552  0.54998029    -0.42000
N1202       N  0.82318602  0.07242380  0.63337875    -0.43500
H1203       H  0.85666956  0.08267005  0.57049331     0.12700
H1204       H  0.98696049  0.10093155  0.61162257     0.09200
H1205       H  0.87561805  0.02087477  0.64597263     0.10200
H1206       H  0.98089765  0.13671068  0.70010079     0.16100
C1207       C  0.95446408  0.34582720  0.60251327    -0.02200
C1208       C  0.92159799  0.31881606  0.61915131     0.06400
C1209       C  0.88579657  0.28413442  0.60894380    -0.08100
C1210       C  0.88234366  0.27606649  0.58246638     0.03900
C1211       C  0.91519193  0.30316130  0.56577915    -0.15400
C1212       C  0.95123545  0.33755392  0.57604239    -0.08700
C1213       C  0.92375517  0.32651430  0.64724306     0.04800
C1214       C  0.89766738  0.33984686  0.65782075    -0.09800
C1215       C  0.89987898  0.34924954  0.68408672    -0.00200
C1216       C  0.92866829  0.34492046  0.70045254    -0.00300
C1217       C  0.95392163  0.33036260  0.68966093    -0.13400
C1218       C  0.95165277  0.32118962  0.66339726     0.00100
C1219       C  0.87311279  0.36455118  0.69311946     0.39400
C1220       C  0.97803299  0.30605304  0.65343409     0.36100
C1221       C  0.49209861  0.37826270  0.61321956     0.35800
C1222       C  0.84549339  0.23901197  0.57302201     0.36600
N1223       N  0.85156147  0.37679434  0.70020363    -0.44200
N1224       N  0.99914996  0.29394354  0.64539027    -0.44700
N1225       N  0.81606532  0.20923075  0.56548376    -0.42000
N1226       N  0.52229506  0.40680580  0.62114829    -0.43500
H1227       H  0.47711457  0.35473994  0.56433135     0.12700
H1228       H  0.86061571  0.26321460  0.62175086     0.09200
H1229       H  0.87607480  0.34378175  0.64532342     0.10200
H1230       H  0.97580124  0.32621489  0.70171101     0.16100
C1231       C  0.64137858  0.19650140  0.32491326    -0.02200
C1232       C  0.60205573  0.17412863  0.31247683     0.06400
C1233       C  0.56531495  0.15812621  0.32717888    -0.08100
C1234       C  0.56715066  0.16469517  0.35382652     0.03900
C1235       C  0.60651112  0.18799821  0.36626842    -0.15400
C1236       C  0.64327924  0.20328059  0.35151292    -0.08700
C1237       C  0.59841185  0.16572887  0.28433756     0.04800
C1238       C  0.61447144  0.14151319  0.27437564    -0.09800
C1239       C  0.60992582  0.13101664  0.24823213    -0.00200
C1240       C  0.58876058  0.14491073  0.23138552    -0.00300
C1241       C  0.57289894  0.16937631  0.24145028    -0.13400
C1242       C  0.57764883  0.17992831  0.26761607     0.00100
C1243       C  0.62547958  0.10418793  0.23974011     0.39400
C1244       C  0.56143693  0.20580495  0.27681729     0.36100
C1245       C  0.68020778  0.21350836  0.31075683     0.35800
C1246       C  0.02886400  0.14569944  0.36757166     0.36600
N1247       N  0.63796159  0.08267020  0.23302385    -0.44200
N1248       N  0.54842497  0.22650622  0.28422528    -0.44700
N1249       N  0.99759058  0.13011405  0.37884003    -0.42000
N1250       N  0.71138099  0.22701994  0.29949782    -0.43500
H1251       H  0.67378152  0.22129103  0.36068874     0.12700
H1252       H  0.53501628  0.13990660  0.31779113     0.09200
H1253       H  0.62984883  0.12994691  0.28726256     0.10200
H1254       H  0.55686808  0.18051078  0.22880711     0.16100
C1255       C  0.63659230  0.43736809  0.32561592    -0.02200
C1256       C  0.59721089  0.42445385  0.31401325     0.06400
C1257       C  0.56111036  0.40657952  0.32943711    -0.08100
C1258       C  0.56365561  0.40105300  0.35604145     0.03900
C1259       C  0.60309150  0.41387836  0.36767163    -0.15400
C1260       C  0.63924208  0.43253270  0.35222100    -0.08700
C1261       C  0.59255143  0.42673236  0.28566985     0.04800
C1262       C  0.56859451  0.38927044  0.27213751    -0.09800
C1263       C  0.56377943  0.38940175  0.24533047    -0.00200
C1264       C  0.58348208  0.42781685  0.23146442    -0.00300
C1265       C  0.60727619  0.46533596  0.24519808    -0.13400
C1266       C  0.61155980  0.46513914  0.27202409     0.00100
C1267       C  0.53927153  0.34950087  0.23272228     0.39400
C1268       C  0.63456769  0.50481028  0.28512376     0.36100
C1269       C  0.67443719  0.45360148  0.31051961     0.35800
C1270       C  0.52546181  0.38284835  0.37089824     0.36600
N1271       N  0.51947541  0.31743410  0.22273409    -0.44200
N1272       N  0.65309696  0.53667876  0.29551245    -0.44700
N1273       N  0.99425154  0.36764553  0.38281044    -0.42000
N1274       N  0.70476620  0.96917037  0.29879966    -0.43500
H1275       H  0.66966968  0.44197682  0.36080274     0.12700
H1276       H  0.53074243  0.39655062  0.32056497     0.09200
H1277       H  0.55391836  0.35967611  0.28259838     0.10200
H1278       H  0.62191832  0.49518223  0.23504415     0.16100
C1279       C  0.02917405  0.28679134  0.93874647    -0.02200
C1280       C  0.51087180  0.24739008  0.95162276     0.06400
C1281       C  0.49783305  0.21094563  0.93718487    -0.08100
C1282       C  0.50408548  0.21307976  0.91046244     0.03900
C1283       C  0.52391131  0.25251777  0.89767901    -0.15400
C1284       C  0.03558004  0.28896579  0.91210613    -0.08700
C1285       C  0.50321070  0.24373040  0.97983833     0.04800
C1286       C  0.97503759  0.25620584  0.98976821    -0.09800
C1287       C  0.96687869  0.25332918  0.01623104    -0.00200
C1288       C  0.48680157  0.23733574  0.03332144    -0.00300
C1289       C  0.51378183  0.22456745  0.02316275    -0.13400
C1290       C  0.52230989  0.22789790  0.99669909     0.00100
C1291       C  0.93704050  0.26487600  0.02512119     0.39400
C1292       C  0.55163565  0.21600459  0.98738325     0.36100
C1293       C  0.04368128  0.32532702  0.95273725     0.35800
C1294       C  0.48869855  0.17417328  0.89675553     0.36600
N1295       N  0.91311128  0.27413382  0.03217507    -0.44200
N1296       N  0.57522178  0.20657918  0.97992325    -0.44700
N1297       N  0.47626870  0.14288186  0.88587477    -0.42000
N1298       N  0.05524154  0.35618403  0.96395442    -0.43500
H1299       H  0.05121210  0.31951795  0.90278050     0.12700
H1300       H  0.48238889  0.18065297  0.94685403     0.09200
H1301       H  0.95964508  0.26764123  0.97680578     0.10200
H1302       H  0.52873178  0.21248607  0.03598874     0.16100
C1303       C  0.72856414  0.98185552  0.99635583    -0.02200
C1304       C  0.76266220  0.00164703  0.97913892     0.06400
C1305       C  0.80245899  0.53186424  0.98874347    -0.08100
C1306       C  0.80849922  0.54202921  0.01494696     0.03900
C1307       C  0.77400874  0.02251200  0.03197314    -0.15400
C1308       C  0.73438818  0.99270482  0.02245884    -0.08700
C1309       C  0.75753864  0.99213525  0.95113433     0.04800
C1310       C  0.72898129  0.99890353  0.93684265    -0.09800
C1311       C  0.72289631  0.99030453  0.91044359    -0.00200
C1312       C  0.74630455  0.97499688  0.89761035    -0.00300
C1313       C  0.77537512  0.46922068  0.91208007    -0.13400
C1314       C  0.78093165  0.47726540  0.93855962     0.00100
C1315       C  0.69268252  0.99807635  0.89731146     0.39400
C1316       C  0.80976992  0.46840333  0.95248899     0.36100
C1317       C  0.68762414  0.94948104  0.98784023     0.35800
C1318       C  0.84982870  0.57377956  0.02338013     0.36600
N1319       N  0.66825057  0.00415651  0.88694974    -0.44200
N1320       N  0.83297379  0.46147586  0.96367816    -0.44700
N1321       N  0.88299369  0.59921553  0.03004439    -0.42000
N1322       N  0.65484879  0.92351000  0.98099051    -0.43500
H1323       H  0.70804656  0.97721983  0.03557086     0.12700
H1324       H  0.82868278  0.54759515  0.97556283     0.09200
H1325       H  0.71133166  0.01109690  0.94642758     0.10200
H1326       H  0.79312838  0.45685068  0.90285904     0.16100
C1327       C  0.79617499  0.26787617  0.99322274    -0.02200
C1328       C  0.75615199  0.25168971  0.98183516     0.06400
C1329       C  0.72037358  0.23240621  0.99747139    -0.08100
C1330       C  0.72397378  0.22872291  0.02418883     0.03900
C1331       C  0.76412387  0.24435014  0.03559402    -0.15400
C1332       C  0.79984499  0.26440123  0.01985202    -0.08700
C1333       C  0.75113080  0.25418681  0.95358571     0.04800
C1334       C  0.73340725  0.21727280  0.93909962    -0.09800
C1335       C  0.72985992  0.21852811  0.91220724    -0.00200
C1336       C  0.74401930  0.25740313  0.89941507    -0.00300
C1337       C  0.76153468  0.29426674  0.91409809    -0.13400
C1338       C  0.76494928  0.29290745  0.94093187     0.00100
C1339       C  0.71336505  0.17974290  0.89821667     0.39400
C1340       C  0.78215162  0.33151631  0.95518844     0.36100
C1341       C  0.83386973  0.28678691  0.97785565     0.35800
C1342       C  0.68610626  0.20976830  0.03940484     0.36600
N1343       N  0.70028806  0.14865089  0.88702304    -0.44200
N1344       N  0.79599437  0.36231891  0.96675411    -0.44700
N1345       N  0.65572363  0.19466679  0.05156123    -0.42000
N1346       N  0.86409510  0.30197522  0.96556229    -0.43500
H1347       H  0.83084158  0.27613971  0.02821821     0.12700
H1348       H  0.68955845  0.22029314  0.98874258     0.09200
H1349       H  0.72308562  0.18747707  0.94882071     0.10200
H1350       H  0.77198073  0.32427962  0.90464228     0.16100
C1351       C  0.77034503  0.73820854  0.06305076     0.80100
N1352       N  0.74254734  0.70201702  0.07517229    -0.78200
C1353       C  0.75023409  0.69372569  0.09954194     0.82500
N1354       N  0.78617513  0.72148048  0.11174139    -0.78200
C1355       C  0.81422902  0.75759661  0.09979673     0.82600
N1356       N  0.80641838  0.76568832  0.07540459    -0.79900
C1357       C  0.74011378  0.76136021  0.87100857     0.80100
N1358       N  0.76897471  0.79610156  0.85808778    -0.78200
C1359       C  0.76392519  0.80114177  0.83258257     0.82500
N1360       N  0.72929946  0.77166134  0.82003508    -0.78200
C1361       C  0.70028792  0.73679014  0.83271190     0.82600
N1362       N  0.70563833  0.73187978  0.85822102    -0.79900
O1363       O  0.73361301  0.70703193  0.49750628    -0.71900
O1364       O  0.77190427  0.81425226  0.46717157    -0.72100
O1365       O  0.69918710  0.74169611  0.46705445    -0.72000
O1366       O  0.80621186  0.77937279  0.49750838    -0.72000
O1367       O  0.82603730  0.76049944  0.46331742    -0.72000
O1368       O  0.71881646  0.72202135  0.43313093    -0.72000
O1369       O  0.79109142  0.79474142  0.43298696    -0.71900
O1370       O  0.75356508  0.68774767  0.46355773    -0.72100
V1371       V  0.75311308  0.76023100  0.48163938     1.35200
V1372       V  0.77200448  0.74163010  0.44891788     1.35200
C1373       C  0.73806068  0.67955758  0.48596137     0.77300
C1374       C  0.78695474  0.82232073  0.44466706     0.77400
C1375       C  0.69117388  0.72626748  0.44467683     0.77200
C1376       C  0.83391488  0.77537358  0.48581858     0.77200
O1377       O  0.63151876  0.93807342  0.83105491    -0.71900
O1378       O  0.52467263  0.90139150  0.80077485    -0.72100
O1379       O  0.55857981  0.86588540  0.83083579    -0.72000
O1380       O  0.59767443  0.97367780  0.80100378    -0.72000
O1381       O  0.61678748  0.95429973  0.76673471    -0.72000
O1382       O  0.57806824  0.84664504  0.79666747    -0.72000
O1383       O  0.54394355  0.88198174  0.76657814    -0.71900
O1384       O  0.65102596  0.91903373  0.79679984    -0.72100
V1385       V  0.57848885  0.91938058  0.81524545     1.35200
V1386       V  0.59708785  0.90086039  0.78236423     1.35200
C1387       C  0.65911565  0.93403265  0.81928163     0.77300
C1388       C  0.51646733  0.88625676  0.77833170     0.77400
C1389       C  0.56256572  0.83828956  0.81906540     0.77200
C1390       C  0.61293566  0.98195317  0.77854512     0.77200
C1391       C  0.77875461  0.53238726  0.05994475     0.80100
N1392       N  0.74919852  0.53739638  0.07228859    -0.78200
C1393       C  0.75419825  0.54813427  0.09759166     0.82500
N1394       N  0.78890058  0.55390186  0.11053008    -0.78200
C1395       C  0.81818559  0.54833140  0.09844032     0.82600
N1396       N  0.81313359  0.53785758  0.07314043    -0.79900
C1397       C  0.74101201  0.46510876  0.86966027     0.80100
N1398       N  0.70521488  0.95683035  0.85697055    -0.78200
C1399       C  0.69889792  0.94478055  0.83195740     0.82500
N1400       N  0.72787857  0.93909582  0.81958738    -0.78200
C1401       C  0.76337426  0.94613642  0.83204627     0.82600
N1402       N  0.76950210  0.95835934  0.85707753    -0.79900
C1403       C  0.47776367  0.73250065  0.06131465     0.80100
N1404       N  0.47168690  0.76096445  0.07402887    -0.78200
C1405       C  0.96147985  0.75547898  0.09942050     0.82500
N1406       N  0.95667987  0.72100157  0.11216096    -0.78200
C1407       C  0.96341267  0.69265600  0.09982716     0.82600
N1408       N  0.47346557  0.69830811  0.07423071    -0.79900
C1409       C  0.53309313  0.75665746  0.86954252     0.80100
N1410       N  0.53913616  0.79160018  0.85669482    -0.78200
C1411       C  0.55168250  0.79835094  0.83171688     0.82500
N1412       N  0.55883925  0.77019962  0.81954617    -0.78200
C1413       C  0.55289768  0.73515337  0.83211060     0.82600
N1414       N  0.54038837  0.72868878  0.85712719    -0.79900
O1415       O  0.89813803  0.53698430  0.16480762    -0.71900
O1416       O  0.93781649  0.64484336  0.13506859    -0.72100
O1417       O  0.86479287  0.57269507  0.13431503    -0.72000
O1418       O  0.97128815  0.60918402  0.16553167    -0.72000
O1419       O  0.99105996  0.59012851  0.13140278    -0.72000
O1420       O  0.88490082  0.55364753  0.10032735    -0.72000
O1421       O  0.95761686  0.62566850  0.10100242    -0.71900
O1422       O  0.91809829  0.51788811  0.13077914    -0.72100
V1423       V  0.91839318  0.59055228  0.14928166     1.35200
V1424       V  0.93755154  0.57219221  0.11657292     1.35200
C1425       C  0.90217201  0.50940987  0.15305834     0.77300
C1426       C  0.95332630  0.65314116  0.11267831     0.77400
C1427       C  0.85723109  0.55800501  0.11173819     0.77200
C1428       C  0.49888800  0.60496116  0.15347891     0.77200
C1429       C  0.60766046  0.90762798  0.39556198     0.80100
N1430       N  0.64321674  0.93517065  0.40827437    -0.78200
C1431       C  0.65019314  0.92735148  0.43288776     0.82500
N1432       N  0.62175055  0.89133364  0.44476583    -0.78200
C1433       C  0.58614716  0.86343644  0.43227531     0.82600
N1434       N  0.57929942  0.87150085  0.40760098    -0.79900
C1435       C  0.57877878  0.93043339  0.20325363     0.80100
N1436       N  0.54366048  0.90137083  0.19079942    -0.78200
C1437       C  0.53813444  0.90574751  0.16525529     0.82500
N1438       N  0.56755327  0.93988398  0.15217616    -0.78200
C1439       C  0.60281901  0.96896554  0.16440898     0.82600
N1440       N  0.60808761  0.96425649  0.18989818    -0.79900
C1441       C  0.61081650  0.69752324  0.39368927     0.80100
N1442       N  0.64558419  0.70363658  0.40673057    -0.78200
C1443       C  0.65160686  0.71567889  0.43175180     0.82500
N1444       N  0.62297654  0.72234382  0.44374935    -0.78200
C1445       C  0.58809762  0.71638773  0.43097143     0.82600
N1446       N  0.58224022  0.70427233  0.40589750    -0.79900
C1447       C  0.58171650  0.63397083  0.20314688     0.80100
N1448       N  0.60959320  0.62741912  0.19004969    -0.78200
C1449       C  0.60227404  0.61473932  0.16516900     0.82500
N1450       N  0.56670224  0.60845103  0.15323896    -0.78200
C1451       C  0.53879252  0.61540772  0.16596732     0.82600
N1452       N  0.54626077  0.62800328  0.19095497    -0.79900
O1453       O  0.66300441  0.60842520  0.16368893    -0.71900
O1454       O  0.73199897  0.57219046  0.13288815    -0.72100
O1455       O  0.73116831  0.64417391  0.13349539    -0.72000
O1456       O  0.66355908  0.53650191  0.16315781    -0.72000
O1457       O  0.62406295  0.51671969  0.12884481    -0.72000
O1458       O  0.69062354  0.62529350  0.09964590    -0.72000
O1459       O  0.69273343  0.55387053  0.09848552    -0.71900
O1460       O  0.62233477  0.58830127  0.12989269    -0.72100
V1461       V  0.69666948  0.58990663  0.14761332     1.35200
V1462       V  0.65820978  0.57136561  0.11485907     1.35200
C1463       C  0.63057523  0.60385521  0.15224053     0.77300
C1464       C  0.72475509  0.55786855  0.11024326     0.77400
C1465       C  0.72254496  0.65295254  0.11149215     0.77200
C1466       C  0.63171943  0.50869547  0.15134413     0.77200
O1467       O  0.49819253  0.77822762  0.49738678    -0.71900
O1468       O  0.56730662  0.74242810  0.46597056    -0.72100
O1469       O  0.56624133  0.81436405  0.46668258    -0.72000
O1470       O  0.49931208  0.70650785  0.49659295    -0.72000
O1471       O  0.95867335  0.68755167  0.46314062    -0.72000
O1472       O  0.52600550  0.79502986  0.43270406    -0.72000
O1473       O  0.52711780  0.72302079  0.43197154    -0.71900
O1474       O  0.95800512  0.75972476  0.46360769    -0.72100
V1475       V  0.53202287  0.76003836  0.48095824     1.35200
V1476       V  0.99315903  0.74178361  0.44870607     1.35200
C1477       C  0.96600026  0.77491274  0.48606277     0.77300
C1478       C  0.55935522  0.72721320  0.44353806     0.77400
C1479       C  0.55795060  0.82283421  0.44447064     0.77200
C1480       C  0.96673224  0.67945298  0.48552186     0.77200
C1481       C  0.91247459  0.79931763  0.53720857     0.80100
N1482       N  0.87831447  0.79470773  0.52416612    -0.78200
C1483       C  0.87327430  0.78527159  0.49873143     0.82500
N1484       N  0.90241145  0.77990451  0.48627376    -0.78200
C1485       C  0.93702667  0.78501259  0.49900401     0.82600
N1486       N  0.94196466  0.79464799  0.52450830    -0.79900
C1487       C  0.93680061  0.85939868  0.72777362     0.80100
N1488       N  0.90824546  0.86567319  0.74035390    -0.78200
C1489       C  0.91407605  0.87697656  0.76555524     0.82500
N1490       N  0.94883411  0.88235422  0.77817712    -0.78200
C1491       C  0.97723635  0.87566780  0.76587499     0.82600
N1492       N  0.97121221  0.86437674  0.74071096    -0.79900
O1493       O  0.85345410  0.88380096  0.76653407    -0.71900
O1494       O  0.78459478  0.92057038  0.79704529    -0.72100
O1495       O  0.85297335  0.95597561  0.76670662    -0.72000
O1496       O  0.78511206  0.84845920  0.79703863    -0.72000
O1497       O  0.82497705  0.86843770  0.83118631    -0.72000
O1498       O  0.89321067  0.97548001  0.80069093    -0.72000
O1499       O  0.82481736  0.94060672  0.83103809    -0.71900
O1500       O  0.89332290  0.90303651  0.80068102    -0.72100
V1501       V  0.81981908  0.90257649  0.78249340     1.35200
V1502       V  0.85834866  0.92151340  0.81521432     1.35200
C1503       C  0.88548800  0.88782728  0.77823315     0.77300
C1504       C  0.79247395  0.93599351  0.81940959     0.77400
C1505       C  0.88505242  0.98373585  0.77840112     0.77200
C1506       C  0.79287016  0.84063786  0.81957263     0.77200
C1507       C  0.91383784  0.59970408  0.53660889     0.80100
N1508       N  0.87881285  0.57101391  0.52399568    -0.78200
C1509       C  0.87354260  0.57607608  0.49855067     0.82500
N1510       N  0.90287508  0.61075334  0.48586752    -0.78200
C1511       C  0.93795535  0.63970039  0.49835777     0.82600
N1512       N  0.94329550  0.63414967  0.52376967    -0.79900
C1513       C  0.93405878  0.56614502  0.72857353     0.80100
N1514       N  0.96982483  0.59432040  0.74099429    -0.78200
C1515       C  0.97714468  0.58741036  0.76580148     0.82500
N1516       N  0.94881529  0.55190216  0.77819823    -0.78200
C1517       C  0.91300692  0.52371028  0.76610846     0.82600
N1518       N  0.90585863  0.53092847  0.74139327    -0.79900
O1519       O  0.89773794  0.84503882  0.16437722    -0.71900
O1520       O  0.93565110  0.77658926  0.13451919    -0.72100
O1521       O  0.97026453  0.84507000  0.16464822    -0.72000
O1522       O  0.86306937  0.77675981  0.13427059    -0.72000
O1523       O  0.88257644  0.81730529  0.10036309    -0.72000
O1524       O  0.49019585  0.88430003  0.13019869    -0.72000
O1525       O  0.95439730  0.81587398  0.10006235    -0.71900
O1526       O  0.91847360  0.88550973  0.13044132    -0.72100
V1527       V  0.91707067  0.81160862  0.14878107     1.35200
V1528       V  0.93611179  0.84995796  0.11592547     1.35200
C1529       C  0.90237612  0.87732055  0.15266898     0.77300
C1530       C  0.95061389  0.78409388  0.11198869     0.77400
C1531       C  0.49819245  0.87682922  0.15274146     0.77200
C1532       C  0.85472852  0.78529129  0.11209193     0.77200
C1533       C  0.81151380  0.90158416  0.39340980     0.80100
N1534       N  0.80613147  0.93049333  0.40618062    -0.78200
C1535       C  0.79611035  0.92522739  0.43160446     0.82500
N1536       N  0.79104771  0.89057600  0.44426806    -0.78200
C1537       C  0.79691909  0.86179867  0.43177933     0.82600
N1538       N  0.80700998  0.86735925  0.40637652    -0.79900
C1539       C  0.87029369  0.92669289  0.20223410     0.80100
N1540       N  0.87737278  0.96216731  0.18963667    -0.78200
C1541       C  0.89084281  0.96937779  0.16484880     0.82500
N1542       N  0.89794586  0.94120256  0.15266353    -0.78200
C1543       C  0.89103294  0.90568848  0.16505108     0.82600
N1544       N  0.87753570  0.89871063  0.18984963    -0.79900
O1545       O  0.75387083  0.55541327  0.46376043    -0.71900
O1546       O  0.79030415  0.48614641  0.43314280    -0.72100
O1547       O  0.71812091  0.98744317  0.43371698    -0.72000
O1548       O  0.82599110  0.55469415  0.46329794    -0.72000
O1549       O  0.80648850  0.01475031  0.49745246    -0.72000
O1550       O  0.69878412  0.94681056  0.46758321    -0.72000
O1551       O  0.77120447  0.94649788  0.46708182    -0.71900
O1552       O  0.73418811  0.01495368  0.49802877    -0.72100
V1553       V  0.77175470  0.52006419  0.44909656     1.35200
V1554       V  0.75304450  0.98150902  0.48186281     1.35200
C1555       C  0.73841516  0.54746508  0.48618150     0.77300
C1556       C  0.78595643  0.95418546  0.44449431     0.77400
C1557       C  0.69040859  0.95528296  0.44539962     0.77200
C1558       C  0.83392315  0.54709587  0.48581661     0.77200
C1559       C  0.71063287  0.59897066  0.53687678     0.80100
N1560       N  0.71610236  0.63368976  0.52402336    -0.78200
C1561       C  0.72765617  0.63993440  0.49883328     0.82500
N1562       N  0.73396040  0.61137036  0.48645811    -0.78200
C1563       C  0.72803666  0.57632067  0.49898019     0.82600
N1564       N  0.71657936  0.57034024  0.52418402    -0.79900
C1565       C  0.63942060  0.56244090  0.72693454     0.80100
N1566       N  0.63457643  0.59164938  0.73981320    -0.78200
C1567       C  0.62394961  0.58605614  0.76518462     0.82500
N1568       N  0.61786016  0.55089788  0.77767939    -0.78200
C1569       C  0.62317709  0.52184038  0.76513076     0.82600
N1570       N  0.63379520  0.52767927  0.73980010    -0.79900
O1571       O  0.61824217  0.64736517  0.76661572    -0.71900
O1572       O  0.58035263  0.71530772  0.79729799    -0.72100
O1573       O  0.65298571  0.71541719  0.79727814    -0.72000
O1574       O  0.54583409  0.64736894  0.76674278    -0.72000
O1575       O  0.52621210  0.60684666  0.80065758    -0.72000
O1576       O  0.63306287  0.67533438  0.83138615    -0.72000
O1577       O  0.56030559  0.67478430  0.83120657    -0.71900
O1578       O  0.59893837  0.60724991  0.80070190    -0.72100
V1579       V  0.59901949  0.68061521  0.78266637     1.35200
V1580       V  0.58004093  0.64182090  0.81531823     1.35200
C1581       C  0.61400063  0.61512298  0.77817461     0.77300
C1582       C  0.56445465  0.70695839  0.81959151     0.77400
C1583       C  0.66082140  0.70759532  0.81978907     0.77200
C1584       C  0.51814211  0.61502978  0.77831308     0.77200
C1585       C  0.66370051  0.60442072  0.60042681    -0.02200
C1586       C  0.67964377  0.58607821  0.61779978     0.06400
C1587       C  0.70542863  0.57136139  0.60845711    -0.08100
C1588       C  0.71582060  0.57497470  0.58226953     0.03900
C1589       C  0.70009354  0.59361529  0.56477525    -0.15400
C1590       C  0.67430430  0.60838932  0.57425430    -0.08700
C1591       C  0.66904135  0.58077767  0.64568798     0.04800
C1592       C  0.64485510  0.54010345  0.65572323    -0.09800
C1593       C  0.63448787  0.53328161  0.68193557    -0.00200
C1594       C  0.64907009  0.56780684  0.69886173    -0.00300
C1595       C  0.67306319  0.60858510  0.68863565    -0.13400
C1596       C  0.68322784  0.61527868  0.66236471     0.00100
C1597       C  0.60727969  0.49059131  0.69048196     0.39400
C1598       C  0.70908255  0.65774840  0.65308117     0.36100
C1599       C  0.63541348  0.61822475  0.60886552     0.35800
C1600       C  0.74390754  0.56066648  0.57422872     0.36600
N1601       N  0.59976752  0.95603242  0.69909859    -0.44200
N1602       N  0.72969969  0.69178696  0.64561642    -0.44700
N1603       N  0.76637263  0.54912425  0.56783465    -0.42000
N1604       N  0.61271318  0.62925696  0.61562134    -0.43500
H1605       H  0.66176565  0.62247968  0.56108703     0.12700
H1606       H  0.71778370  0.55728011  0.62178199     0.09200
H1607       H  0.63357815  0.51352498  0.64288521     0.10200
H1608       H  0.68451761  0.63539581  0.70127749     0.16100
C1609       C  0.86678479  0.95430678  0.27177256    -0.02200
C1610       C  0.84383845  0.91461365  0.28365151     0.06400
C1611       C  0.82864592  0.87843749  0.26861706    -0.08100
C1612       C  0.83636848  0.88132410  0.24204325     0.03900
C1613       C  0.85939396  0.92120913  0.23004421    -0.15400
C1614       C  0.87404523  0.95730041  0.24522722    -0.08700
C1615       C  0.83531067  0.91045833  0.31174102     0.04800
C1616       C  0.81017154  0.92542016  0.32179199    -0.09800
C1617       C  0.80218123  0.92319701  0.34825936    -0.00200
C1618       C  0.81967747  0.90566660  0.36526813    -0.00300
C1619       C  0.84439250  0.89017690  0.35503129    -0.13400
C1620       C  0.85240072  0.89255291  0.32854603     0.00100
C1621       C  0.77449045  0.93751567  0.35709987     0.39400
C1622       C  0.87914798  0.87748508  0.31912329     0.36100
C1623       C  0.88465034  0.99238713  0.28662580     0.35800
C1624       C  0.81954229  0.84287687  0.22764489     0.36600
N1625       N  0.75223941  0.94895498  0.36410831    -0.44200
N1626       N  0.90058945  0.86545472  0.31151935    -0.44700
N1627       N  0.80611654  0.81199415  0.21618350    -0.42000
N1628       N  0.90242392  0.52282128  0.29970776    -0.43500
H1629       H  0.89235962  0.98813106  0.23649234     0.12700
H1630       H  0.81067238  0.84784432  0.27771896     0.09200
H1631       H  0.79655973  0.93872374  0.30881549     0.10200
H1632       H  0.85796419  0.87660321  0.36780912     0.16100
C1633       C  0.88485235  0.58723161  0.60690572    -0.02200
C1634       C  0.92099890  0.59073052  0.61886180     0.06400
C1635       C  0.95496789  0.59697445  0.60358759    -0.08100
C1636       C  0.95329169  0.59977813  0.57667675     0.03000
C1637       C  0.91705911  0.59611962  0.56475961    -0.15400
C1638       C  0.88309713  0.58975206  0.58004156    -0.08700
C1639       C  0.92308010  0.58574711  0.64714936     0.04800
C1640       C  0.89612631  0.54665566  0.65837221    -0.09800
C1641       C  0.89805963  0.53959157  0.68478050    -0.00200
C1642       C  0.92789587  0.57239361  0.70069147    -0.00300
C1643       C  0.95416079  0.61195223  0.68926891    -0.13400
C1644       C  0.95199120  0.61876912  0.66280806     0.00100
C1645       C  0.86770490  0.99960114  0.69461396     0.39400
C1646       C  0.48266131  0.65683415  0.65106927     0.36100
C1647       C  0.84961119  0.58196878  0.62183814     0.35800
C1648       C  0.98816278  0.60438759  0.56164454     0.36600
N1649       N  0.84199677  0.96744563  0.70252583    -0.44200
N1650       N  0.50446418  0.68985794  0.64246280    -0.44700
N1651       N  0.51967026  0.61059784  0.54756930    -0.42000
N1652       N  0.82140246  0.57783536  0.63379742    -0.43500
H1653       H  0.85540519  0.58748111  0.57096151     0.12700
H1654       H  0.98251772  0.59895872  0.61271176     0.09200
H1655       H  0.87387803  0.52120520  0.64624953     0.10200
H1656       H  0.97684579  0.63776146  0.70095751     0.16100
C1657       C  0.96002017  0.84314181  0.60250863    -0.02200
C1658       C  0.92465063  0.82336928  0.61870146     0.06400
C1659       C  0.88536243  0.79523737  0.60816284    -0.08100
C1660       C  0.88077197  0.78657086  0.58176725     0.03900
C1661       C  0.91609310  0.80673438  0.56534911    -0.15400
C1662       C  0.95556401  0.83449705  0.57605972    -0.08700
C1663       C  0.92766953  0.83198594  0.64667743     0.04800
C1664       C  0.91097644  0.85593031  0.65612160    -0.09800
C1665       C  0.91329872  0.86511731  0.68240374    -0.00200
C1666       C  0.93214587  0.84955957  0.69985097    -0.00300
C1667       C  0.94867024  0.82537143  0.69022182    -0.13400
C1668       C  0.94648594  0.81644850  0.66390683     0.00100
C1669       C  0.89812761  0.89240021  0.69053610     0.39400
C1670       C  0.96322571  0.79085976  0.65502738     0.36100
C1671       C  0.49162623  0.88225160  0.61181378     0.35800
C1672       C  0.83981282  0.75553251  0.57234814     0.36600
N1673       N  0.88615437  0.91443045  0.69703568    -0.44200
N1674       N  0.97664575  0.77037975  0.64786592    -0.44700
N1675       N  0.80701102  0.73054893  0.56487280    -0.42000
N1676       N  0.52123944  0.91170836  0.61947809    -0.43500
H1677       H  0.47661756  0.85736714  0.56309561     0.12700
H1678       H  0.85823606  0.77973108  0.62070000     0.09200
H1679       H  0.89673561  0.86810273  0.64278554     0.10200
H1680       H  0.96319060  0.81318104  0.70331089     0.16100
C1681       C  0.64147259  0.69613072  0.32439311    -0.02200
C1682       C  0.60213465  0.67407557  0.31195154     0.06400
C1683       C  0.56540101  0.65823902  0.32663391    -0.08100
C1684       C  0.56726736  0.66469620  0.35328875     0.03900
C1685       C  0.60665262  0.68777872  0.36573646    -0.15400
C1686       C  0.64340974  0.70285555  0.35099494    -0.08700
C1687       C  0.59845918  0.66579856  0.28381960     0.04800
C1688       C  0.61392005  0.64107489  0.27385671    -0.09800
C1689       C  0.60930510  0.63067815  0.24770623    -0.00200
C1690       C  0.58869890  0.64521137  0.23087216    -0.00300
C1691       C  0.57342314  0.67017197  0.24093274    -0.13400
C1692       C  0.57824419  0.68062514  0.26711144     0.00100
C1693       C  0.62414611  0.60327177  0.23918334     0.39400
C1694       C  0.56269139  0.70704296  0.27634516     0.36100
C1695       C  0.68027387  0.71284351  0.31023510     0.35800
C1696       C  0.02808470  0.64716778  0.36761935     0.36600
N1697       N  0.63604266  0.58128450  0.23243600    -0.44200
N1698       N  0.55022109  0.72818983  0.28377944    -0.44700
N1699       N  0.99676427  0.63189011  0.37883294    -0.42000
N1700       N  0.71141171  0.72610288  0.29896489    -0.43500
H1701       H  0.67392923  0.72066712  0.36017984     0.12700
H1702       H  0.53508920  0.64023514  0.31722433     0.09200
H1703       H  0.62887057  0.62904649  0.28674547     0.10200
H1704       H  0.55781666  0.68176521  0.22827713     0.16100
C1705       C  0.63638309  0.93894054  0.32586412    -0.02200
C1706       C  0.59693377  0.92555050  0.31422378     0.06400
C1707       C  0.56079592  0.90728278  0.32961612    -0.08100
C1708       C  0.56335332  0.90170013  0.35621153     0.03900
C1709       C  0.60283699  0.91484220  0.36786853    -0.15400
C1710       C  0.63903382  0.93402309  0.35246181    -0.08700
C1711       C  0.59224728  0.92758039  0.28586604     0.04800
C1712       C  0.56873304  0.88994500  0.27241346    -0.09800
C1713       C  0.56396582  0.88982496  0.24559346    -0.00200
C1714       C  0.58323805  0.92814358  0.23164631    -0.00300
C1715       C  0.60657641  0.96583528  0.24528825    -0.13400
C1716       C  0.61083879  0.96589285  0.27212271     0.00100
C1717       C  0.54005150  0.84980048  0.23303344     0.39400
C1718       C  0.63341919  0.00570110  0.28511689     0.36100
C1719       C  0.67432057  0.95571038  0.31080873     0.35800
C1720       C  0.52510147  0.88305619  0.37102481     0.36600
N1721       N  0.52075483  0.81764055  0.22306984    -0.44200
N1722       N  0.65162015  0.03768797  0.29540942    -0.44700
N1723       N  0.99459533  0.86702883  0.38258676    -0.42000
N1724       N  0.70480922  0.46662105  0.29847846    -0.43500
H1725       H  0.66951601  0.94377847  0.36106009     0.12700
H1726       H  0.53038213  0.89692629  0.32071749     0.09200
H1727       H  0.55440227  0.86042001  0.28294478     0.10200
H1728       H  0.62088312  0.99559908  0.23504581     0.16100
C1729       C  0.02936331  0.78562950  0.93908048    -0.02200
C1730       C  0.51016908  0.74693435  0.95153409     0.06400
C1731       C  0.49732927  0.71045319  0.93717246    -0.08100
C1732       C  0.50360432  0.71248591  0.91045150     0.03900
C1733       C  0.52325981  0.75185682  0.89758855    -0.15400
C1734       C  0.03560991  0.78793368  0.91242637    -0.08700
C1735       C  0.50254575  0.74337990  0.97975493     0.04800
C1736       C  0.97489859  0.75435977  0.98987221    -0.09800
C1737       C  0.96671330  0.75167026  0.01631662    -0.00200
C1738       C  0.48620052  0.73708266  0.03323747    -0.00300
C1739       C  0.51357742  0.72478844  0.02313070    -0.13400
C1740       C  0.52207210  0.72807288  0.99666570     0.00100
C1741       C  0.93624866  0.76246755  0.02505874     0.39400
C1742       C  0.55178577  0.71666604  0.98739486     0.36100
C1743       C  0.04357127  0.82406606  0.95312880     0.35800
C1744       C  0.48839774  0.67353756  0.89682521     0.36600
N1745       N  0.91179224  0.77108792  0.03199781    -0.44200
N1746       N  0.57568578  0.70763225  0.97997443    -0.44700
N1747       N  0.47610433  0.64220773  0.88601164    -0.42000
N1748       N  0.05489579  0.85483203  0.96440399    -0.43500
H1749       H  0.05090767  0.81851482  0.90313508     0.12700
H1750       H  0.48202687  0.68020897  0.94690120     0.09200
H1751       H  0.95914149  0.76523603  0.97679770     0.10200
H1752       H  0.52884557  0.71310584  0.03599902     0.16100
C1753       C  0.72870019  0.48235962  0.99638426    -0.02200
C1754       C  0.76288006  0.50200197  0.97922068     0.06400
C1755       C  0.80214501  0.03189568  0.98856269    -0.08100
C1756       C  0.80819654  0.04225942  0.01473024     0.03900
C1757       C  0.77419394  0.52251120  0.03212489    -0.15400
C1758       C  0.73450379  0.49305125  0.02251318    -0.08700
C1759       C  0.75777498  0.49266438  0.95118438     0.04800
C1760       C  0.72957051  0.49994496  0.93686651    -0.09800
C1761       C  0.72356148  0.49154468  0.91043240    -0.00200
C1762       C  0.74666360  0.47589420  0.89760008    -0.00300
C1763       C  0.77539472  0.96886644  0.91205387    -0.13400
C1764       C  0.78102206  0.97710413  0.93851099     0.00100
C1765       C  0.69377329  0.49988901  0.89725418     0.39400
C1766       C  0.81030343  0.96885402  0.95241598     0.36100
C1767       C  0.68769426  0.45024150  0.98779349     0.35800
C1768       C  0.84938779  0.07446052  0.02306180     0.36600
N1769       N  0.66968874  0.50644291  0.88685393    -0.44200
N1770       N  0.83387289  0.96243223  0.96358332    -0.44700
N1771       N  0.88243083  0.10027060  0.02965161    -0.42000
N1772       N  0.65486864  0.42444678  0.98089505    -0.43500
H1773       H  0.70807323  0.47770173  0.03557107     0.12700
H1774       H  0.82827434  0.04778365  0.97533041     0.09200
H1775       H  0.71215159  0.51239223  0.94645506     0.10200
H1776       H  0.79339691  0.95678537  0.90282292     0.16100
C1777       C  0.79632265  0.76921755  0.99312636    -0.02200
C1778       C  0.75625765  0.75276789  0.98175864     0.06400
C1779       C  0.72050249  0.73312566  0.99739935    -0.08100
C1780       C  0.72416337  0.72925041  0.02409226     0.03900
C1781       C  0.76435112  0.74497262  0.03546225    -0.15400
C1782       C  0.80005004  0.76547666  0.01972619    -0.08700
C1783       C  0.75116182  0.75516408  0.95350819     0.04800
C1784       C  0.73397996  0.71825886  0.93903918    -0.09800
C1785       C  0.73044726  0.71941506  0.91214312    -0.00200
C1786       C  0.74407856  0.75816983  0.89932556    -0.00300
C1787       C  0.76105369  0.79503228  0.91398303    -0.13400
C1788       C  0.76444483  0.79377051  0.94083030     0.00100
C1789       C  0.71457108  0.68069070  0.89816532     0.39400
C1790       C  0.78106548  0.83233503  0.95507773     0.36100
C1791       C  0.83401814  0.78866966  0.97776071     0.35800
C1792       C  0.68631073  0.71000271  0.03932344     0.36600
N1793       N  0.70200239  0.64964910  0.88698367    -0.44200
N1794       N  0.79442497  0.86309612  0.96664393    -0.44700
N1795       N  0.65594813  0.69468484  0.05150082    -0.42000
N1796       N  0.86424675  0.80430663  0.96547102    -0.43500
H1797       H  0.83108962  0.77737366  0.02806207     0.12700
H1798       H  0.68965377  0.72084646  0.98868944     0.09200
H1799       H  0.72408911  0.68855900  0.94877763     0.10200
H1800       H  0.77109259  0.82494201  0.90449168     0.16100
loop_ 
_geom_bond_atom_site_label_1 
_geom_bond_atom_site_label_2 
_geom_bond_distance 
_geom_bond_site_symmetry_2 
_ccdc_geom_bond_type 
C1            N2   1.358       .  A
C1            N6   1.359       .  A
C1          C431   1.481       .  S
N2            C3   1.357       .  A
C3            N4   1.356       .  A
C3          C115   1.460       .  S
N4            C5   1.355       .  A
C5            N6   1.357       .  A
C5          C182   1.463       .  S
C7            N8   1.359       .  A
C7           N12   1.360       .  A
C7          C436   1.483       .  S
N8            C9   1.357       .  A
C9           N10   1.356       .  A
C9          C156   1.464       .  S
N10          C11   1.357       .  A
C11          N12   1.359       .  A
C11         C233   1.465       .  S
O13          V21   1.898       .  S
O13          C23   1.263       .  A
O14          V21   1.899       .  S
O14          C24   1.264       .  A
O15          V21   1.898       .  S
O15          C25   1.264       .  A
O16          V21   1.896       .  S
O16          C26   1.264       .  A
O17          V22   1.896       .  S
O17          C26   1.263       .  A
O18          V22   1.895       .  S
O18          C25   1.263       .  A
O19          V22   1.898       .  S
O19          C24   1.264       .  A
O20          V22   1.899       .  S
O20          C23   1.264       .  A
V21          V22   2.089       .  T
C23         C211   1.465       .  S
C24         C187   1.466       .  S
C25          C93   1.463       .  S
C26         C133   1.462       .  S
O27          V35   1.895       .  S
O27          C37   1.263       .  A
O28          V35   1.895       .  S
O28          C38   1.263       .  A
O29          V35   1.899       .  S
O29          C39   1.264       .  A
O30          V35   1.900       .  S
O30          C40   1.264       .  A
O31          V36   1.899       .  S
O31          C40   1.264       .  A
O32          V36   1.899       .  S
O32          C39   1.264       .  A
O33          V36   1.898       .  S
O33          C38   1.264       .  A
O34          V36   1.899       .  S
O34          C37   1.264       .  A
V35          V36   2.089       .  T
C37          C49   1.463       .  S
C38        C1041   1.463   1_455  S
C39          C61   1.466       .  S
C40         C669   1.467       .  S
C41          N42   1.359       .  A
C41          N46   1.357       .  A
C41         C407   1.478       .  S
N42          C43   1.359       .  A
C43          N44   1.357       .  A
C43         C114   1.465       .  S
N44          C45   1.356       .  A
C45          N46   1.356       .  A
C45          C77   1.463       .  S
C47         N498   1.358       .  A
C47         N502   1.360       .  A
C47         C412   1.490       .  S
N48          C49   1.356       .  A
N48         C497   1.358       .  A
C49          N50   1.355       .  A
N50          C51   1.357       .  A
C51          N52   1.358       .  A
C51         C154   1.464       .  S
N52         C497   1.361       .  A
C53          N54   1.357       .  A
C53          N58   1.359       .  A
C53         C388   1.482       .  S
N54         C955   1.356       .  A
C55          N56   1.357       .  A
C55         N954   1.356       .  A
C55         C180   1.465       .  S
N56          C57   1.358       .  A
C57         N958   1.359       .  A
C57          C76   1.465       .  S
N58         C957   1.359       .  A
C59          N60   1.360       .  A
C59          N64   1.360       .  A
C59         C383   1.489       .  S
N60          C61   1.357       .  A
C61          N62   1.357       .  A
N62          C63   1.357       .  A
C63          N64   1.359       .  A
C63         C232   1.466       .  S
O65          V73   1.898       .  S
O65          C75   1.264       .  A
O66          V73   1.899       .  S
O66          C76   1.264       .  A
O67          V73   1.899       .  S
O67          C77   1.264       .  A
O68          V73   1.901       .  S
O68         C978   1.264       .  A
O69          V74   1.895       .  S
O69         C978   1.264       .  A
O70          V74   1.894       .  S
O70          C77   1.263       .  A
O71          V74   1.898       .  S
O71          C76   1.263       .  A
O72          V74   1.898       .  S
O72          C75   1.264       .  A
V73          V74   2.089       .  T
C75         C641   1.465   1_545  S
C78         C101   1.466   1_655  S
C78         O968   1.264       .  A
C78         O969   1.264       .  A
C79          N80   1.358       .  A
C79          N84   1.360       .  A
C79         C359   1.482       .  S
N80          C81   1.356       .  A
C81          N82   1.355       .  A
C81         C207   1.462       .  S
N82          C83   1.357       .  A
C83          N84   1.359       .  A
C83         C129   1.464       .  S
C85          N86   1.359       .  A
C85          N90   1.358       .  A
C85         C364   1.486       .  S
N86          C87   1.358       .  A
C87          N88   1.357       .  A
C87         C181   1.464   1_455  S
N88          C89   1.356       .  A
C89          N90   1.356       .  A
C89         C566   1.462       .  S
C91          N92   1.358       .  A
C91          N96   1.361       .  A
C91         C335   1.485       .  S
N92          C93   1.356       .  A
C93          N94   1.356       .  A
N94          C95   1.357       .  A
C95          N96   1.359       .  A
C95         C128   1.466       .  S
C97          N98   1.357       .  A
C97         N102   1.362       .  A
C97         C340   1.485       .  S
N98          C99   1.355       .  A
C99         N100   1.355       .  A
C99         C113   1.462       .  S
N100        C101   1.357       .  A
C101        N102   1.360       .  A
O103        V111   1.893       .  S
O103        C113   1.263       .  A
O104        V111   1.895       .  S
O104        C114   1.263       .  A
O105        V111   1.893       .  S
O105        C115   1.263       .  A
O106        V111   1.893       .  S
O106        C116   1.263       .  A
O107        V112   1.898       .  S
O107        C116   1.264       .  A
O108        V112   1.896       .  S
O108        C115   1.263       .  A
O109        V112   1.901       .  S
O109        C114   1.264       .  A
O110        V112   1.899       .  S
O110        C113   1.264       .  A
V111        V112   2.090       .  T
C116        C539   1.462   1_545  S
O117        V125   1.898   1_655  S
O117       C1027   1.263       .  A
O118        V125   1.896       .  S
O118        C128   1.264       .  A
O119        V125   1.896       .  S
O119        C129   1.264       .  A
O120        V125   1.896   1_655  S
O120       C1030   1.263       .  A
O121        V126   1.899       .  S
O121        C130   1.264       .  A
O122       V1026   1.899   1_455  S
O122        C129   1.263       .  A
O123       V1026   1.902   1_455  S
O123        C128   1.264       .  A
O124        V126   1.900       .  S
O124        C127   1.265       .  A
V125       V1026   2.089   1_455  T
V126       O1022   1.900       .  S
V126       O1023   1.902       .  S
V126       V1025   2.089       .  T
C127        C135   1.467       .  S
C127       O1017   1.263       .  A
C130        C161   1.465       .  S
C130       O1020   1.263       .  A
C131        N132   1.356       .  A
C131        N136   1.360       .  A
C131        C311   1.476       .  S
N132        C133   1.355       .  A
C133        N134   1.357       .  A
N134        C135   1.357       .  A
C135        N136   1.360       .  A
C137        N138   1.359       .  A
C137        N142   1.360       .  A
C137        C316   1.494       .  S
N138        C139   1.357       .  A
C139        N140   1.355       .  A
C139        C153   1.464       .  S
N140        C141   1.356       .  A
C141        N142   1.357       .  A
C141        C938   1.463       .  S
O143        V151   1.895       .  S
O143        C153   1.263       .  A
O144        V151   1.895       .  S
O144        C154   1.263       .  A
O145        V151   1.899       .  S
O145        C155   1.264       .  A
O146        V151   1.898       .  S
O146        C156   1.264       .  A
O147        V152   1.897       .  S
O147        C156   1.263       .  A
O148        V152   1.898       .  S
O148        C155   1.264       .  A
O149        V152   1.899       .  S
O149        C154   1.264       .  A
O150        V152   1.899       .  S
O150        C153   1.264       .  A
V151        V152   2.089       .  T
C155        C617   1.465       .  S
C157        N158   1.357       .  A
C157        N162   1.358       .  A
C157        C287   1.474       .  S
N158        C159   1.357       .  A
C159        N160   1.357       .  A
C159        C208   1.463       .  S
N160        C161   1.357       .  A
C161        N162   1.358       .  A
C163        N164   1.361       .  A
C163        N168   1.359       .  A
C163        C292   1.494       .  S
N164        C165   1.358       .  A
C165        N166   1.356       .  A
C165       C1134   1.464       .  S
N166        C167   1.355       .  A
C167        N168   1.356       .  A
C167        C605   1.464   1_545  S
O169        V177   1.897       .  S
O169        C179   1.263       .  A
O170        V177   1.899       .  S
O170        C180   1.264       .  A
O171        V177   1.898       .  S
O171       C1081   1.264       .  A
O172        V177   1.898       .  S
O172        C182   1.264       .  A
O173        V178   1.896       .  S
O173        C182   1.263       .  A
O174       V1078   1.896       .  S
O174        C181   1.263       .  A
O175        V178   1.897       .  S
O175        C180   1.264       .  A
O176        V178   1.897       .  S
O176        C179   1.264       .  A
V177        V178   2.089       .  T
V178       O1074   1.896       .  S
C179        C193   1.464       .  S
C181       O1071   1.264       .  A
C183        N184   1.359       .  A
C183        N188   1.358       .  A
C183        C268   1.483       .  S
N184        C185   1.357       .  A
C185        N186   1.358       .  A
C185        C206   1.467       .  S
N186        C187   1.358       .  A
C187        N188   1.357       .  A
C189        N190   1.360       .  A
C189        N194   1.358       .  A
C189        C263   1.485       .  S
N190        C191   1.357       .  A
C191        N192   1.357       .  A
C191        C525   1.465       .  S
N192        C193   1.357       .  A
C193        N194   1.357       .  A
O195        V203   1.899       .  S
O195        C205   1.265       .  A
O196        V203   1.901   1_565  S
O196        C656   1.264       .  A
O197        V653   1.894       .  S
O197        C207   1.263       .  A
O198        V203   1.896       .  S
O198        C208   1.263       .  A
O199        V204   1.897       .  S
O199        C658   1.264       .  A
O200        V204   1.898       .  S
O200        C207   1.264       .  A
O201        V204   1.899       .  S
O201        C206   1.264       .  A
O202        V204   1.898       .  S
O202        C655   1.263       .  A
V203        O647   1.894   1_545  S
V203        V654   2.089   1_545  T
V204        V653   2.089       .  T
C205        C213   1.466       .  S
C205        O652   1.263       .  A
C206        O646   1.265       .  A
C208        O649   1.264       .  A
C209        N210   1.360       .  A
C209        N214   1.360       .  A
C209        C239   1.488       .  S
N210        C211   1.358       .  A
C211        N212   1.356       .  A
N212        C213   1.356       .  A
C213        N214   1.359       .  A
C215        N216   1.361       .  A
C215        N220   1.359       .  A
C215        C244   1.488       .  S
N216        C217   1.360       .  A
C217        N218   1.358       .  A
C217        C231   1.468       .  S
N218        C219   1.357       .  A
C219        N220   1.358       .  A
C219        C490   1.467   1_545  S
O221        V229   1.900       .  S
O221        C231   1.264       .  A
O222        V229   1.898       .  S
O222        C232   1.264       .  A
O223        V229   1.898       .  S
O223        C233   1.264       .  A
O224        V229   1.898       .  S
O224        C234   1.263       .  A
O225        V230   1.896       .  S
O225        C234   1.264       .  A
O226        V230   1.899       .  S
O226        C233   1.263       .  A
O227        V230   1.900       .  S
O227        C232   1.264       .  A
O228        V230   1.901       .  S
O228        C231   1.265       .  A
V229        V230   2.089       .  T
C234       C1065   1.464   1_455  S
C235        C236   1.410       .  A
C235        C240   1.401       .  A
C235        C249   1.444       .  S
C236        C241   1.487       .  S
C236        C237   1.402       .  A
C237        C238   1.401       .  A
C237        H256   1.085       .  S
C238        C239   1.417       .  A
C238        C250   1.444       .  S
C239        C240   1.407       .  A
C240        H255   1.085       .  S
C241        C242   1.402       .  A
C241        C246   1.411       .  A
C242        C243   1.401       .  A
C242        H257   1.085       .  S
C243        C244   1.418       .  A
C243        C247   1.445   1_545  S
C244        C245   1.407       .  A
C245        C246   1.402       .  A
C245        H258   1.085       .  S
C246        C248   1.444       .  S
C247        N701   1.158       .  T
C248        N252   1.157       .  T
C249        N254   1.157       .  T
C250        N253   1.157       .  T
N251        C697   1.158       .  T
C259        C260   1.408       .  A
C259        C264   1.397       .  A
C259        C273   1.444       .  S
C260        C265   1.483       .  S
C260        C261   1.402       .  A
C261        C262   1.402       .  A
C261        H280   1.085       .  S
C262        C263   1.417       .  A
C262        C274   1.444       .  S
C263        C264   1.406       .  A
C264        H279   1.085       .  S
C265        C266   1.401       .  A
C265        C270   1.409       .  A
C266        C267   1.399       .  A
C266        H281   1.085       .  S
C267        C268   1.416       .  A
C267        C271   1.445       .  S
C268        C269   1.406       .  A
C269        C270   1.400       .  A
C269        H282   1.085       .  S
C270        C272   1.444       .  S
C271        N275   1.157       .  T
C272        N276   1.157       .  T
C273        N728   1.157       .  T
C274        N277   1.157       .  T
N278        C723   1.157   1_545  T
C283        C284   1.410       .  A
C283        C288   1.399       .  A
C283        C297   1.444       .  S
C284        C289   1.482       .  S
C284        C285   1.404       .  A
C285        C286   1.401       .  A
C285        H304   1.085       .  S
C286        C287   1.410       .  A
C286        C298   1.444       .  S
C287        C288   1.403       .  A
C288        H303   1.084       .  S
C289        C290   1.399       .  A
C289        C294   1.407       .  A
C290        C291   1.399       .  A
C290        H305   1.086       .  S
C291        C292   1.422       .  A
C291        C745   1.444   1_545  S
C292        C293   1.410       .  A
C293        C294   1.401       .  A
C293        H306   1.085       .  S
C294       C1196   1.444       .  S
C295        C741   1.444       .  S
C295        N299   1.157       .  T
C296       C1194   1.444       .  S
C296        N300   1.157   1_655  T
C297        N302   1.157       .  T
C298       N1201   1.157       .  T
N301       C1198   1.157   1_455  T
C307        C308   1.412       .  A
C307        C312   1.400       .  A
C307       C1221   1.444       .  S
C308        C313   1.483       .  S
C308        C309   1.402       .  A
C309        C310   1.399       .  A
C309        H328   1.085       .  S
C310        C311   1.414       .  A
C310        C322   1.445       .  S
C311        C312   1.402       .  A
C312       H1227   1.085       .  S
C313        C314   1.400       .  A
C313        C318   1.408       .  A
C314        C315   1.401       .  A
C314        H329   1.085       .  S
C315        C316   1.421       .  A
C315        C319   1.444       .  S
C316        C317   1.409       .  A
C317        C318   1.399       .  A
C317        H330   1.084       .  S
C318        C320   1.444       .  S
C319        N323   1.157       .  T
C320        N324   1.157       .  T
C321       C1207   1.444       .  S
C321        N326   1.157   1_655  T
C322        N325   1.158       .  T
H327       C1212   1.085       .  S
C331        C332   1.410       .  A
C331        C336   1.399       .  A
C331        C345   1.445       .  S
C332        C337   1.485       .  S
C332        C333   1.403       .  A
C333        C334   1.400       .  A
C333        H352   1.085       .  S
C334        C335   1.414       .  A
C334       C1246   1.443       .  S
C335        C336   1.408       .  A
C336        H351   1.085       .  S
C337        C338   1.401       .  A
C337        C342   1.411       .  A
C338        C339   1.399       .  A
C338        H353   1.086       .  S
C339        C340   1.419       .  A
C339        C343   1.445       .  S
C340        C341   1.405       .  A
C341        C342   1.400       .  A
C341        H354   1.085       .  S
C342        C344   1.444       .  S
C343        N347   1.157       .  T
C344        N348   1.157       .  T
C345        N350   1.157       .  T
C346       C1234   1.444       .  S
C346        N349   1.157       .  T
C355        C356   1.410       .  A
C355        C360   1.397       .  A
C355        C369   1.445       .  S
C356        C361   1.483       .  S
C356        C357   1.404       .  A
C357        C358   1.401       .  A
C357        H376   1.085       .  S
C358        C359   1.413       .  A
C358        C370   1.444       .  S
C359        C360   1.406       .  A
C360        H375   1.085       .  S
C361        C362   1.402       .  A
C361        C366   1.410       .  A
C362        C363   1.400       .  A
C362        H377   1.085       .  S
C363        C364   1.415       .  A
C363        C367   1.444       .  S
C364        C365   1.408       .  A
C365        C366   1.398       .  A
C365        H378   1.084       .  S
C366        C368   1.445       .  S
C367        N371   1.157       .  T
C368        N372   1.157       .  T
C369        N824   1.157       .  T
C370       N1273   1.157   1_455  T
N373       C1270   1.157       .  T
N374        C819   1.157       .  T
C379        C384   1.398       .  A
C379       C1280   1.409       .  A
C379        C393   1.444       .  S
C380        C385   1.484       .  S
C380        C381   1.402   1_455  A
C380       C1279   1.409       .  A
C381        C382   1.402   1_655  A
C381        H400   1.085       .  S
C382        C383   1.417       .  A
C382        C394   1.444   1_455  S
C383       C1284   1.408       .  A
C384       C1283   1.408       .  A
C384        H399   1.084       .  S
C385        C390   1.410       .  A
C385       C1286   1.402   1_455  A
C386        C387   1.399   1_556  A
C386       C1285   1.401       .  A
C386        H401   1.085       .  S
C387       C1288   1.416       .  A
C387        C391   1.445       .  S
C388        C389   1.405   1_655  A
C388       C1287   1.416       .  A
C389        C390   1.401   1_554  A
C389        H402   1.085       .  S
C390        C392   1.444       .  S
C391        N395   1.158       .  T
C392        N396   1.157       .  T
C393        N398   1.157       .  T
C394        N397   1.157       .  T
C403        C404   1.412   1_565  A
C403        C408   1.399   1_556  A
C403        C417   1.444       .  S
C404        C409   1.485   1_545  S
C404        C855   1.402       .  A
C405        C406   1.399   1_556  A
C405        C854   1.403       .  A
C405        H424   1.085       .  S
C406        C857   1.415       .  A
C406        C418   1.445       .  S
C407        C408   1.403   1_545  A
C407        C856   1.415       .  A
C408        H423   1.085       .  S
C409        C410   1.401   1_565  A
C409        C864   1.409       .  A
C410        C411   1.399   1_545  A
C410        H425   1.085       .  S
C411        C412   1.420       .  A
C411        C415   1.444       .  S
C412        C863   1.409       .  A
C413        C414   1.400       .  A
C413        C862   1.409       .  A
C413        H426   1.085       .  S
C414        C859   1.410       .  A
C414        C416   1.444       .  S
C415        N419   1.158   1_565  T
C416        N420   1.157       .  T
C417        N422   1.157       .  T
C418        N421   1.158       .  T
C427        C428   1.409       .  A
C427        C432   1.396   1_556  A
C427        C441   1.444       .  S
C428        C433   1.481       .  S
C428        C429   1.402       .  A
C429        C430   1.402   1_556  A
C429        H448   1.085       .  S
C430        C431   1.415       .  A
C430        C442   1.444       .  S
C431        C432   1.405       .  A
C432        H447   1.085       .  S
C433        C434   1.402       .  A
C433        C438   1.408       .  A
C434        C435   1.402       .  A
C434        H449   1.085       .  S
C435        C436   1.415       .  A
C435        C439   1.444       .  S
C436        C437   1.406       .  A
C437        C438   1.398       .  A
C437        H450   1.085       .  S
C438        C440   1.444       .  S
C439        N443   1.157       .  T
C440        N444   1.157       .  T
C441        N446   1.157       .  T
C442        N445   1.157       .  T
C451        N452   1.358       .  A
C451        N456   1.360       .  A
C451        C881   1.483       .  S
N452        C453   1.357       .  A
C453        N454   1.356       .  A
C453        C565   1.461       .  S
N454        C455   1.355       .  A
C455        N456   1.357       .  A
C455        C632   1.463       .  S
C457        N458   1.359       .  A
C457        N462   1.360       .  A
C457        C886   1.483       .  S
N458        C459   1.357       .  A
C459        N460   1.356       .  A
C459        C606   1.465       .  S
N460        C461   1.357       .  A
C461        N462   1.359       .  A
C461        C683   1.466       .  S
O463        V471   1.898       .  S
O463        C473   1.263       .  A
O464        V471   1.899       .  S
O464        C474   1.264       .  A
O465        V471   1.898       .  S
O465        C475   1.264       .  A
O466        V471   1.896       .  S
O466        C476   1.264       .  A
O467        V472   1.897       .  S
O467        C476   1.263       .  A
O468        V472   1.895       .  S
O468        C475   1.263       .  A
O469        V472   1.899       .  S
O469        C474   1.264       .  A
O470        V472   1.899       .  S
O470        C473   1.264       .  A
V471        V472   2.089       .  T
C473        C661   1.465       .  S
C474        C637   1.466       .  S
C475        C543   1.463       .  S
C476        C583   1.463       .  S
O477        V485   1.895       .  S
O477        C487   1.263       .  A
O478        V485   1.895       .  S
O478        C488   1.263       .  A
O479        V485   1.899       .  S
O479        C489   1.264       .  A
O480        V485   1.900       .  S
O480        C490   1.264       .  A
O481        V486   1.899       .  S
O481        C490   1.264       .  A
O482        V486   1.898       .  S
O482        C489   1.264       .  A
O483        V486   1.895       .  S
O483        C488   1.263       .  A
O484        V486   1.897       .  S
O484        C487   1.263       .  A
V485        V486   2.089       .  T
C487        C499   1.462       .  S
C488       C1491   1.461   1_455  S
C489        C511   1.466       .  S
C491        N492   1.360       .  A
C491        N496   1.357       .  A
C491        C857   1.479       .  S
N492        C493   1.359       .  A
C493        N494   1.358       .  A
C493        C564   1.465       .  S
N494        C495   1.356       .  A
C495        N496   1.356       .  A
C495        C527   1.464       .  S
C497        C862   1.492       .  S
N498        C499   1.356       .  A
C499        N500   1.355       .  A
N500        C501   1.356       .  A
C501        N502   1.358       .  A
C501        C604   1.463       .  S
C503        N504   1.358       .  A
C503        N508   1.358       .  A
C503        C838   1.481       .  S
N504       C1405   1.357       .  A
C505       N1404   1.356       .  A
C505        N506   1.357       .  A
C505        C630   1.465       .  S
N506        C507   1.358       .  A
C507       N1408   1.359       .  A
C507        C526   1.465       .  S
N508       C1407   1.358       .  A
C509        N510   1.360       .  A
C509        N514   1.360       .  A
C509        C833   1.489       .  S
N510        C511   1.357       .  A
C511        N512   1.356       .  A
N512        C513   1.357       .  A
C513        N514   1.358       .  A
C513        C682   1.466       .  S
O515        V523   1.898       .  S
O515        C525   1.264       .  A
O516        V523   1.898       .  S
O516        C526   1.264       .  A
O517        V523   1.900       .  S
O517        C527   1.264       .  A
O518        V523   1.901       .  S
O518       C1428   1.264       .  A
O519        V524   1.895       .  S
O519       C1428   1.263       .  A
O520        V524   1.895       .  S
O520        C527   1.263       .  A
O521        V524   1.898       .  S
O521        C526   1.264       .  A
O522        V524   1.899       .  S
O522        C525   1.264       .  A
V523        V524   2.089       .  T
C528        C551   1.465   1_655  S
C528       O1418   1.264       .  A
C528       O1419   1.263       .  A
C529        N530   1.358       .  A
C529        N534   1.360       .  A
C529        C809   1.482       .  S
N530        C531   1.356       .  A
C531        N532   1.355       .  A
C531        C657   1.462       .  S
N532        C533   1.356       .  A
C533        N534   1.359       .  A
C533        C579   1.465       .  S
C535        N536   1.359       .  A
C535        N540   1.357       .  A
C535        C814   1.486       .  S
N536        C537   1.358       .  A
C537        N538   1.357       .  A
C537        C631   1.464   1_455  S
N538        C539   1.356       .  A
C539        N540   1.356       .  A
C541        N542   1.358       .  A
C541        N546   1.360       .  A
C541        C785   1.485       .  S
N542        C543   1.356       .  A
C543        N544   1.356       .  A
N544        C545   1.357       .  A
C545        N546   1.359       .  A
C545        C578   1.466       .  S
C547        N548   1.358       .  A
C547        N552   1.361       .  A
C547        C790   1.485       .  S
N548        C549   1.356       .  A
C549        N550   1.355       .  A
C549        C563   1.463       .  S
N550        C551   1.357       .  A
C551        N552   1.359       .  A
O553        V561   1.894       .  S
O553        C563   1.263       .  A
O554        V561   1.895       .  S
O554        C564   1.263       .  A
O555        V561   1.894       .  S
O555        C565   1.263       .  A
O556        V561   1.894       .  S
O556        C566   1.263       .  A
O557        V562   1.898       .  S
O557        C566   1.264       .  A
O558        V562   1.896       .  S
O558        C565   1.263       .  A
O559        V562   1.901       .  S
O559        C564   1.264       .  A
O560        V562   1.899       .  S
O560        C563   1.264       .  A
V561        V562   2.090       .  T
O567        V575   1.898   1_655  S
O567       C1477   1.263       .  A
O568        V575   1.897       .  S
O568        C578   1.264       .  A
O569        V575   1.896       .  S
O569        C579   1.264       .  A
O570        V575   1.897   1_655  S
O570       C1480   1.263       .  A
O571        V576   1.900       .  S
O571        C580   1.264       .  A
O572       V1476   1.900   1_455  S
O572        C579   1.263       .  A
O573       V1476   1.901   1_455  S
O573        C578   1.264       .  A
O574        V576   1.900       .  S
O574        C577   1.265       .  A
V575       V1476   2.089   1_455  T
V576       O1472   1.901       .  S
V576       O1473   1.902       .  S
V576       V1475   2.089       .  T
C577        C585   1.467       .  S
C577       O1467   1.263       .  A
C580        C611   1.465       .  S
C580       O1470   1.263       .  A
C581        N582   1.356       .  A
C581        N586   1.359       .  A
C581        C761   1.475       .  S
N582        C583   1.355       .  A
C583        N584   1.357       .  A
N584        C585   1.358       .  A
C585        N586   1.360       .  A
C587        N588   1.359       .  A
C587        N592   1.360       .  A
C587        C766   1.493       .  S
N588        C589   1.358       .  A
C589        N590   1.356       .  A
C589        C603   1.464       .  S
N590        C591   1.356       .  A
C591        N592   1.357       .  A
C591       C1388   1.463       .  S
O593        V601   1.896       .  S
O593        C603   1.263       .  A
O594        V601   1.894       .  S
O594        C604   1.263       .  A
O595        V601   1.898       .  S
O595        C605   1.264       .  A
O596        V601   1.899       .  S
O596        C606   1.264       .  A
O597        V602   1.896       .  S
O597        C606   1.263       .  A
O598        V602   1.896       .  S
O598        C605   1.263       .  A
O599        V602   1.898       .  S
O599        C604   1.264       .  A
O600        V602   1.899       .  S
O600        C603   1.264       .  A
V601        V602   2.089       .  T
C607        N608   1.357       .  A
C607        N612   1.358       .  A
C607        C737   1.474       .  S
N608        C609   1.356       .  A
C609        N610   1.357       .  A
C609        C658   1.463       .  S
N610        C611   1.358       .  A
C611        N612   1.359       .  A
C613        N614   1.361       .  A
C613        N618   1.359       .  A
C613        C742   1.494       .  S
N614        C615   1.358       .  A
C615        N616   1.356       .  A
C615       C1584   1.464       .  S
N616        C617   1.356       .  A
C617        N618   1.357       .  A
O619        V627   1.897       .  S
O619        C629   1.263       .  A
O620        V627   1.899       .  S
O620        C630   1.264       .  A
O621        V627   1.899       .  S
O621       C1531   1.264       .  A
O622        V627   1.898       .  S
O622        C632   1.264       .  A
O623        V628   1.896       .  S
O623        C632   1.263       .  A
O624       V1528   1.896       .  S
O624        C631   1.264       .  A
O625        V628   1.897       .  S
O625        C630   1.264       .  A
O626        V628   1.897       .  S
O626        C629   1.264       .  A
V627        V628   2.089       .  T
V628       O1524   1.897       .  S
C629        C643   1.464       .  S
C631       O1521   1.264       .  A
C633        N634   1.359       .  A
C633        N638   1.358       .  A
C633        C718   1.484       .  S
N634        C635   1.358       .  A
C635        N636   1.358       .  A
C635        C656   1.468       .  S
N636        C637   1.358       .  A
C637        N638   1.358       .  A
C639        N640   1.359       .  A
C639        N644   1.359       .  A
C639        C713   1.485       .  S
N640        C641   1.357       .  A
C641        N642   1.356       .  A
N642        C643   1.357       .  A
C643        N644   1.358       .  A
O645        V653   1.900       .  S
O645        C655   1.265       .  A
O646        V653   1.901       .  S
O647        C657   1.263       .  A
O648        V653   1.896       .  S
O648        C658   1.263       .  A
O649        V654   1.897   1_545  S
O650        V654   1.898       .  S
O650        C657   1.264       .  A
O651        V654   1.900       .  S
O651        C656   1.264       .  A
O652        V654   1.898   1_545  S
C655        C663   1.467       .  S
C659        N660   1.359       .  A
C659        N664   1.360       .  A
C659        C689   1.486       .  S
N660        C661   1.358       .  A
C661        N662   1.357       .  A
N662        C663   1.357       .  A
C663        N664   1.359       .  A
C665        N666   1.361       .  A
C665        N670   1.359       .  A
C665        C694   1.489       .  S
N666        C667   1.360       .  A
C667        N668   1.358       .  A
C667        C681   1.468       .  S
N668        C669   1.357       .  A
C669        N670   1.357       .  A
O671        V679   1.900       .  S
O671        C681   1.264       .  A
O672        V679   1.898       .  S
O672        C682   1.264       .  A
O673        V679   1.899       .  S
O673        C683   1.264       .  A
O674        V679   1.899       .  S
O674        C684   1.263       .  A
O675        V680   1.896       .  S
O675        C684   1.264       .  A
O676        V680   1.899       .  S
O676        C683   1.263       .  A
O677        V680   1.899       .  S
O677        C682   1.264       .  A
O678        V680   1.900       .  S
O678        C681   1.265       .  A
V679        V680   2.089       .  T
C684       C1515   1.465   1_455  S
C685        C686   1.410       .  A
C685        C690   1.401       .  A
C685        C699   1.444       .  S
C686        C691   1.486       .  S
C686        C687   1.402       .  A
C687        C688   1.401       .  A
C687        H706   1.085       .  S
C688        C689   1.416       .  A
C688        C700   1.444       .  S
C689        C690   1.406       .  A
C690        H705   1.085       .  S
C691        C692   1.401       .  A
C691        C696   1.411       .  A
C692        C693   1.400       .  A
C692        H707   1.085       .  S
C693        C694   1.418       .  A
C693        C697   1.445       .  S
C694        C695   1.407       .  A
C695        C696   1.402       .  A
C695        H708   1.085       .  S
C696        C698   1.444       .  S
C698        N702   1.157       .  T
C699        N704   1.157       .  T
C700        N703   1.157       .  T
C709        C710   1.408       .  A
C709        C714   1.397       .  A
C709        C723   1.444       .  S
C710        C715   1.483       .  S
C710        C711   1.403       .  A
C711        C712   1.402       .  A
C711        H730   1.085       .  S
C712        C713   1.416       .  A
C712        C724   1.444       .  S
C713        C714   1.406       .  A
C714        H729   1.085       .  S
C715        C716   1.402       .  A
C715        C720   1.409       .  A
C716        C717   1.399       .  A
C716        H731   1.085       .  S
C717        C718   1.416       .  A
C717        C721   1.445       .  S
C718        C719   1.406       .  A
C719        C720   1.400       .  A
C719        H732   1.085       .  S
C720        C722   1.444       .  S
C721        N725   1.157       .  T
C722        N726   1.157       .  T
C724        N727   1.157       .  T
C733        C734   1.410       .  A
C733        C738   1.398       .  A
C733        C747   1.445       .  S
C734        C739   1.483       .  S
C734        C735   1.404       .  A
C735        C736   1.401       .  A
C735        H754   1.084       .  S
C736        C737   1.410       .  A
C736        C748   1.444       .  S
C737        C738   1.403       .  A
C738        H753   1.084       .  S
C739        C740   1.399       .  A
C739        C744   1.408       .  A
C740        C741   1.399       .  A
C740        H755   1.086       .  S
C741        C742   1.421       .  A
C742        C743   1.410       .  A
C743        C744   1.401       .  A
C743        H756   1.085       .  S
C744       C1646   1.444       .  S
C745        N749   1.157       .  T
C746       C1644   1.444       .  S
C746        N750   1.157   1_655  T
C747        N752   1.157       .  T
C748       N1651   1.157       .  T
N751       C1648   1.157   1_455  T
C757        C758   1.411       .  A
C757        C762   1.401       .  A
C757       C1671   1.444       .  S
C758        C763   1.482       .  S
C758        C759   1.401       .  A
C759        C760   1.400       .  A
C759        H778   1.085       .  S
C760        C761   1.414       .  A
C760        C772   1.445       .  S
C761        C762   1.402       .  A
C762       H1677   1.085       .  S
C763        C764   1.400       .  A
C763        C768   1.407       .  A
C764        C765   1.401       .  A
C764        H779   1.085       .  S
C765        C766   1.421       .  A
C765        C769   1.444       .  S
C766        C767   1.409       .  A
C767        C768   1.399       .  A
C767        H780   1.084       .  S
C768        C770   1.444       .  S
C769        N773   1.157       .  T
C770        N774   1.157       .  T
C771       C1657   1.444   1_455  S
C771        N776   1.157       .  T
C772        N775   1.158       .  T
H777       C1662   1.085       .  S
C781        C782   1.410       .  A
C781        C786   1.399       .  A
C781        C795   1.445       .  S
C782        C787   1.484       .  S
C782        C783   1.403       .  A
C783        C784   1.400       .  A
C783        H802   1.085       .  S
C784        C785   1.414       .  A
C784       C1696   1.444       .  S
C785        C786   1.407       .  A
C786        H801   1.085       .  S
C787        C788   1.401       .  A
C787        C792   1.410       .  A
C788        C789   1.399       .  A
C788        H803   1.086       .  S
C789        C790   1.418       .  A
C789        C793   1.445       .  S
C790        C791   1.406       .  A
C791        C792   1.400       .  A
C791        H804   1.085       .  S
C792        C794   1.444       .  S
C793        N797   1.157       .  T
C794        N798   1.157       .  T
C795        N800   1.157       .  T
C796       C1684   1.444       .  S
C796        N799   1.157       .  T
C805        C806   1.410       .  A
C805        C810   1.398       .  A
C805        C819   1.445       .  S
C806        C811   1.484       .  S
C806        C807   1.404       .  A
C807        C808   1.401       .  A
C807        H826   1.085       .  S
C808        C809   1.414       .  A
C808        C820   1.444       .  S
C809        C810   1.406       .  A
C810        H825   1.085       .  S
C811        C812   1.403       .  A
C811        C816   1.410       .  A
C812        C813   1.400       .  A
C812        H827   1.085       .  S
C813        C814   1.415       .  A
C813        C817   1.444       .  S
C814        C815   1.408       .  A
C815        C816   1.398       .  A
C815        H828   1.084       .  S
C816        C818   1.445   1_565  S
C817        N821   1.157       .  T
C818        N822   1.157       .  T
C820       N1723   1.157   1_455  T
N823       C1720   1.157       .  T
C829       C1730   1.409       .  A
C829        C834   1.399       .  A
C829        C843   1.444       .  S
C830        C835   1.484       .  S
C830       C1729   1.408       .  A
C830        C831   1.402   1_455  A
C831        C832   1.402   1_655  A
C831        H850   1.085       .  S
C832        C833   1.418       .  A
C832        C844   1.444   1_455  S
C833       C1734   1.408       .  A
C834       C1733   1.408       .  A
C834        H849   1.084       .  S
C835       C1736   1.402   1_455  A
C835        C840   1.410       .  A
C836       C1735   1.402       .  A
C836        C837   1.399   1_556  A
C836        H851   1.085       .  S
C837       C1738   1.416       .  A
C837        C841   1.445       .  S
C838       C1737   1.416       .  A
C838        C839   1.405   1_655  A
C839        C840   1.401   1_554  A
C839        H852   1.085       .  S
C840        C842   1.444       .  S
C841        N845   1.158       .  T
C842        N846   1.157       .  T
C843        N848   1.157       .  T
C844        N847   1.157       .  T
C853        C854   1.412       .  A
C853        C858   1.400   1_556  A
C853        C867   1.444       .  S
C854        C859   1.486       .  S
C855        C856   1.399   1_556  A
C855        H874   1.085       .  S
C856        C868   1.445       .  S
C857        C858   1.403       .  A
C858        H873   1.085       .  S
C859        C860   1.401       .  A
C860        C861   1.399       .  A
C860        H875   1.085       .  S
C861        C862   1.420       .  A
C861        C865   1.444       .  S
C863        C864   1.399       .  A
C863        H876   1.085       .  S
C864        C866   1.444       .  S
C865        N869   1.157       .  T
C866        N870   1.157       .  T
C867        N872   1.157       .  T
C868        N871   1.158       .  T
C877        C878   1.409       .  A
C877        C882   1.397   1_556  A
C877        C891   1.444       .  S
C878        C883   1.482       .  S
C878        C879   1.402       .  A
C879        C880   1.402   1_556  A
C879        H898   1.085       .  S
C880        C881   1.416       .  A
C880        C892   1.444       .  S
C881        C882   1.405       .  A
C882        H897   1.085       .  S
C883        C884   1.402       .  A
C883        C888   1.408       .  A
C884        C885   1.402       .  A
C884        H899   1.085       .  S
C885        C886   1.414       .  A
C885        C889   1.444       .  S
C886        C887   1.407       .  A
C887        C888   1.399       .  A
C887        H900   1.085       .  S
C888        C890   1.444       .  S
C889        N893   1.157       .  T
C890        N894   1.157       .  T
C891        N896   1.157       .  T
C892        N895   1.157       .  T
C901        N902   1.358       .  A
C901        N906   1.360       .  A
C901       C1331   1.482       .  S
N902        C903   1.357       .  A
C903        N904   1.356       .  A
C903       C1015   1.461       .  S
N904        C905   1.355       .  A
C905        N906   1.357       .  A
C905       C1082   1.463       .  S
C907        N908   1.359       .  A
C907        N912   1.359       .  A
C907       C1336   1.483       .  S
N908        C909   1.357       .  A
C909        N910   1.356       .  A
C909       C1056   1.464       .  S
N910        C911   1.357       .  A
C911        N912   1.359       .  A
C911       C1133   1.465       .  S
O913        V921   1.897       .  S
O913        C923   1.263       .  A
O914        V921   1.899       .  S
O914        C924   1.264       .  A
O915        V921   1.899       .  S
O915        C925   1.264       .  A
O916        V921   1.897       .  S
O916        C926   1.264       .  A
O917        V922   1.896       .  S
O917        C926   1.263       .  A
O918        V922   1.895       .  S
O918        C925   1.263       .  A
O919        V922   1.899       .  S
O919        C924   1.264       .  A
O920        V922   1.899       .  S
O920        C923   1.264       .  A
V921        V922   2.089       .  T
C923       C1111   1.465       .  S
C924       C1087   1.466       .  S
C925        C993   1.464       .  S
C926       C1033   1.463       .  S
O927        V935   1.894       .  S
O927        C937   1.263       .  A
O928        V935   1.894       .  S
O928        C938   1.263       .  A
O929        V935   1.900       .  S
O929        C939   1.264       .  A
O930        V935   1.900       .  S
O930        C940   1.264       .  A
O931        V936   1.899       .  S
O931        C940   1.264       .  A
O932        V936   1.898       .  S
O932        C939   1.264       .  A
O933        V936   1.898       .  S
O933        C938   1.264       .  A
O934        V936   1.899       .  S
O934        C937   1.264       .  A
V935        V936   2.089       .  T
C937        C949   1.463       .  S
C939        C961   1.466       .  S
C940       C1569   1.467       .  S
C941        N942   1.360       .  A
C941        N946   1.357       .  A
C941       C1307   1.479       .  S
N942        C943   1.359       .  A
C943        N944   1.358       .  A
C943       C1014   1.466       .  S
N944        C945   1.356       .  A
C945        N946   1.356       .  A
C945        C977   1.464       .  S
C947       N1398   1.358       .  A
C947       N1402   1.360       .  A
C947       C1312   1.491       .  S
N948       C1397   1.358       .  A
N948        C949   1.356       .  A
C949        N950   1.355       .  A
N950        C951   1.356       .  A
C951        N952   1.358       .  A
C951       C1054   1.463       .  S
N952       C1397   1.360       .  A
C953        N954   1.358       .  A
C953        N958   1.359       .  A
C953       C1288   1.482       .  S
C955        N956   1.357       .  A
C955       C1080   1.465       .  S
N956        C957   1.358       .  A
C957        C976   1.466       .  S
C959        N960   1.360       .  A
C959        N964   1.360       .  A
C959       C1283   1.488       .  S
N960        C961   1.357       .  A
C961        N962   1.357       .  A
N962        C963   1.357       .  A
C963        N964   1.358       .  A
C963       C1132   1.467       .  S
O965        V973   1.898       .  S
O965        C975   1.264       .  A
O966        V973   1.898       .  S
O966        C976   1.264       .  A
O967        V973   1.900       .  S
O967        C977   1.264       .  A
O968        V973   1.902       .  S
O969        V974   1.895       .  S
O970        V974   1.895       .  S
O970        C977   1.263       .  A
O971        V974   1.898       .  S
O971        C976   1.264       .  A
O972        V974   1.899       .  S
O972        C975   1.264       .  A
V973        V974   2.089       .  T
C975       C1541   1.465   1_545  S
C978       C1001   1.465       .  S
C979        N980   1.358       .  A
C979        N984   1.361       .  A
C979       C1259   1.482       .  S
N980        C981   1.355       .  A
C981        N982   1.355       .  A
C981       C1107   1.462       .  S
N982        C983   1.357       .  A
C983        N984   1.360       .  A
C983       C1029   1.465       .  S
C985        N986   1.358       .  A
C985        N990   1.358       .  A
C985       C1264   1.487       .  S
N986        C987   1.358       .  A
C987        N988   1.358       .  A
C987       C1081   1.464       .  S
N988        C989   1.357       .  A
C989        N990   1.356       .  A
C989       C1466   1.463       .  S
C991        N992   1.358       .  A
C991        N996   1.361       .  A
C991       C1235   1.486       .  S
N992        C993   1.356       .  A
C993        N994   1.356       .  A
N994        C995   1.357       .  A
C995        N996   1.360       .  A
C995       C1028   1.467       .  S
C997        N998   1.358       .  A
C997       N1002   1.361       .  A
C997       C1240   1.486       .  S
N998        C999   1.356       .  A
C999       N1000   1.355       .  A
C999       C1013   1.463       .  S
N1000      C1001   1.357       .  A
C1001      N1002   1.360       .  A
O1003      V1011   1.894       .  S
O1003      C1013   1.262       .  A
O1004      V1011   1.895       .  S
O1004      C1014   1.263       .  A
O1005      V1011   1.894       .  S
O1005      C1015   1.263       .  A
O1006      V1011   1.894       .  S
O1006      C1016   1.263       .  A
O1007      V1012   1.898       .  S
O1007      C1016   1.264       .  A
O1008      V1012   1.896       .  S
O1008      C1015   1.263       .  A
O1009      V1012   1.902       .  S
O1009      C1014   1.264       .  A
O1010      V1012   1.899       .  S
O1010      C1013   1.264       .  A
V1011      V1012   2.090       .  T
C1016      C1439   1.463   1_545  S
O1017      V1025   1.898       .  S
O1018      V1025   1.897       .  S
O1018      C1028   1.264       .  A
O1019      V1025   1.897       .  S
O1019      C1029   1.264       .  A
O1020      V1025   1.897       .  S
O1021      V1026   1.899       .  S
O1021      C1030   1.264       .  A
O1022      C1029   1.263       .  A
O1023      C1028   1.264       .  A
O1024      V1026   1.901       .  S
O1024      C1027   1.265       .  A
C1027      C1035   1.467       .  S
C1030      C1061   1.464       .  S
C1031      N1032   1.356       .  A
C1031      N1036   1.359       .  A
C1031      C1211   1.474       .  S
N1032      C1033   1.355       .  A
C1033      N1034   1.357       .  A
N1034      C1035   1.358       .  A
C1035      N1036   1.360       .  A
C1037      N1038   1.359       .  A
C1037      N1042   1.360       .  A
C1037      C1216   1.493       .  S
N1038      C1039   1.358       .  A
C1039      N1040   1.356       .  A
C1039      C1053   1.465       .  S
N1040      C1041   1.356       .  A
C1041      N1042   1.357       .  A
O1043      V1051   1.896       .  S
O1043      C1053   1.263       .  A
O1044      V1051   1.895       .  S
O1044      C1054   1.263       .  A
O1045      V1051   1.898       .  S
O1045      C1055   1.264       .  A
O1046      V1051   1.898       .  S
O1046      C1056   1.264       .  A
O1047      V1052   1.897       .  S
O1047      C1056   1.263       .  A
O1048      V1052   1.896       .  S
O1048      C1055   1.263       .  A
O1049      V1052   1.898       .  S
O1049      C1054   1.264       .  A
O1050      V1052   1.899       .  S
O1050      C1053   1.264       .  A
V1051      V1052   2.089       .  T
C1055      C1517   1.464       .  S
C1057      N1058   1.357       .  A
C1057      N1062   1.358       .  A
C1057      C1187   1.475       .  S
N1058      C1059   1.356       .  A
C1059      N1060   1.357       .  A
C1059      C1108   1.464       .  S
N1060      C1061   1.357       .  A
C1061      N1062   1.358       .  A
C1063      N1064   1.361       .  A
C1063      N1068   1.359       .  A
C1063      C1192   1.495       .  S
N1064      C1065   1.359       .  A
C1065      N1066   1.356       .  A
N1066      C1067   1.355       .  A
C1067      N1068   1.356       .  A
C1067      C1505   1.464   1_545  S
O1069      V1077   1.897       .  S
O1069      C1079   1.263       .  A
O1070      V1077   1.899       .  S
O1070      C1080   1.264       .  A
O1071      V1077   1.898       .  S
O1072      V1077   1.898       .  S
O1072      C1082   1.264       .  A
O1073      V1078   1.896       .  S
O1073      C1082   1.263       .  A
O1074      C1081   1.263       .  A
O1075      V1078   1.897       .  S
O1075      C1080   1.264       .  A
O1076      V1078   1.897       .  S
O1076      C1079   1.264       .  A
V1077      V1078   2.089       .  T
C1079      C1093   1.463       .  S
C1083      N1084   1.359       .  A
C1083      N1088   1.358       .  A
C1083      C1168   1.483       .  S
N1084      C1085   1.357       .  A
C1085      N1086   1.358       .  A
C1085      C1106   1.468       .  S
N1086      C1087   1.358       .  A
C1087      N1088   1.357       .  A
C1089      N1090   1.360       .  A
C1089      N1094   1.358       .  A
C1089      C1163   1.484       .  S
N1090      C1091   1.357       .  A
C1091      N1092   1.356       .  A
C1091      C1425   1.465       .  S
N1092      C1093   1.357       .  A
C1093      N1094   1.358       .  A
O1095      V1103   1.899       .  S
O1095      C1105   1.264       .  A
O1096      V1103   1.900   1_565  S
O1096      C1556   1.264       .  A
O1097      V1553   1.895       .  S
O1097      C1107   1.263       .  A
O1098      V1103   1.896       .  S
O1098      C1108   1.263       .  A
O1099      V1104   1.896       .  S
O1099      C1558   1.264       .  A
O1100      V1104   1.898       .  S
O1100      C1107   1.264       .  A
O1101      V1104   1.900       .  S
O1101      C1106   1.264       .  A
O1102      V1104   1.898       .  S
O1102      C1555   1.263       .  A
V1103      O1547   1.895   1_545  S
V1103      V1554   2.089   1_545  T
V1104      V1553   2.089       .  T
C1105      C1113   1.466       .  S
C1105      O1552   1.263       .  A
C1106      O1546   1.265       .  A
C1108      O1549   1.264       .  A
C1109      N1110   1.359       .  A
C1109      N1114   1.360       .  A
C1109      C1139   1.486       .  S
N1110      C1111   1.358       .  A
C1111      N1112   1.357       .  A
N1112      C1113   1.356       .  A
C1113      N1114   1.358       .  A
C1115      N1116   1.361       .  A
C1115      N1120   1.359       .  A
C1115      C1144   1.492       .  S
N1116      C1117   1.360       .  A
C1117      N1118   1.358       .  A
C1117      C1131   1.469       .  S
N1118      C1119   1.357       .  A
C1119      N1120   1.357       .  A
C1119      C1390   1.467   1_545  S
O1121      V1129   1.900       .  S
O1121      C1131   1.264       .  A
O1122      V1129   1.899       .  S
O1122      C1132   1.264       .  A
O1123      V1129   1.898       .  S
O1123      C1133   1.264       .  A
O1124      V1129   1.898       .  S
O1124      C1134   1.263       .  A
O1125      V1130   1.896       .  S
O1125      C1134   1.264       .  A
O1126      V1130   1.898       .  S
O1126      C1133   1.263       .  A
O1127      V1130   1.900       .  S
O1127      C1132   1.264       .  A
O1128      V1130   1.901       .  S
O1128      C1131   1.265       .  A
V1129      V1130   2.089       .  T
C1135      C1136   1.411       .  A
C1135      C1140   1.402       .  A
C1135      C1149   1.444       .  S
C1136      C1141   1.488       .  S
C1136      C1137   1.403       .  A
C1137      C1138   1.401       .  A
C1137      H1156   1.085       .  S
C1138      C1139   1.416       .  A
C1138      C1150   1.444       .  S
C1139      C1140   1.406       .  A
C1140      H1155   1.085       .  S
C1141      C1142   1.401       .  A
C1141      C1146   1.411       .  A
C1142      C1143   1.400       .  A
C1142      H1157   1.085       .  S
C1143      C1144   1.419       .  A
C1143      C1147   1.445   1_545  S
C1144      C1145   1.408       .  A
C1145      C1146   1.402       .  A
C1145      H1158   1.085       .  S
C1146      C1148   1.444       .  S
C1147      N1601   1.158       .  T
C1148      N1152   1.157       .  T
C1149      N1154   1.157       .  T
C1150      N1153   1.157       .  T
N1151      C1597   1.158       .  T
C1159      C1160   1.408       .  A
C1159      C1164   1.397       .  A
C1159      C1173   1.444       .  S
C1160      C1165   1.483       .  S
C1160      C1161   1.402       .  A
C1161      C1162   1.402       .  A
C1161      H1180   1.085       .  S
C1162      C1163   1.416       .  A
C1162      C1174   1.444       .  S
C1163      C1164   1.406       .  A
C1164      H1179   1.085       .  S
C1165      C1166   1.401       .  A
C1165      C1170   1.409       .  A
C1166      C1167   1.399       .  A
C1166      H1181   1.085       .  S
C1167      C1168   1.416       .  A
C1167      C1171   1.445       .  S
C1168      C1169   1.406       .  A
C1169      C1170   1.400       .  A
C1169      H1182   1.085       .  S
C1170      C1172   1.444       .  S
C1171      N1175   1.157       .  T
C1172      N1176   1.157       .  T
C1173      N1628   1.157       .  T
C1174      N1177   1.157       .  T
N1178      C1623   1.157   1_545  T
C1183      C1184   1.411       .  A
C1183      C1188   1.397       .  A
C1183      C1197   1.445       .  S
C1184      C1189   1.485       .  S
C1184      C1185   1.405       .  A
C1185      C1186   1.402       .  A
C1185      H1204   1.084       .  S
C1186      C1187   1.411       .  A
C1186      C1198   1.444       .  S
C1187      C1188   1.403       .  A
C1188      H1203   1.084       .  S
C1189      C1190   1.400       .  A
C1189      C1194   1.408       .  A
C1190      C1191   1.398       .  A
C1190      H1205   1.086       .  S
C1191      C1192   1.421       .  A
C1191      C1645   1.444   1_545  S
C1192      C1193   1.411       .  A
C1193      C1194   1.401       .  A
C1193      H1206   1.085       .  S
C1195      C1641   1.444       .  S
C1195      N1199   1.157       .  T
C1196      N1200   1.157       .  T
C1197      N1202   1.157       .  T
C1207      C1208   1.411       .  A
C1207      C1212   1.401       .  A
C1208      C1213   1.481       .  S
C1208      C1209   1.401       .  A
C1209      C1210   1.399       .  A
C1209      H1228   1.085       .  S
C1210      C1211   1.413       .  A
C1210      C1222   1.445       .  S
C1211      C1212   1.402       .  A
C1213      C1214   1.400       .  A
C1213      C1218   1.407       .  A
C1214      C1215   1.401       .  A
C1214      H1229   1.085       .  S
C1215      C1216   1.421       .  A
C1215      C1219   1.444       .  S
C1216      C1217   1.410       .  A
C1217      C1218   1.399       .  A
C1217      H1230   1.084       .  S
C1218      C1220   1.444       .  S
C1219      N1223   1.157       .  T
C1220      N1224   1.157       .  T
C1221      N1226   1.157       .  T
C1222      N1225   1.158       .  T
C1231      C1232   1.410       .  A
C1231      C1236   1.399       .  A
C1231      C1245   1.445       .  S
C1232      C1237   1.486       .  S
C1232      C1233   1.403       .  A
C1233      C1234   1.401       .  A
C1233      H1252   1.085       .  S
C1234      C1235   1.414       .  A
C1235      C1236   1.408       .  A
C1236      H1251   1.085       .  S
C1237      C1238   1.401       .  A
C1237      C1242   1.411       .  A
C1238      C1239   1.399       .  A
C1238      H1253   1.085       .  S
C1239      C1240   1.418       .  A
C1239      C1243   1.445       .  S
C1240      C1241   1.406       .  A
C1241      C1242   1.401       .  A
C1241      H1254   1.085       .  S
C1242      C1244   1.444       .  S
C1243      N1247   1.157       .  T
C1244      N1248   1.157       .  T
C1245      N1250   1.157       .  T
C1246      N1249   1.157   1_455  T
C1255      C1256   1.410       .  A
C1255      C1260   1.398       .  A
C1255      C1269   1.445       .  S
C1256      C1261   1.484       .  S
C1256      C1257   1.404       .  A
C1257      C1258   1.401       .  A
C1257      H1276   1.085       .  S
C1258      C1259   1.413       .  A
C1258      C1270   1.444       .  S
C1259      C1260   1.406       .  A
C1260      H1275   1.085       .  S
C1261      C1262   1.402       .  A
C1261      C1266   1.410       .  A
C1262      C1263   1.400       .  A
C1262      H1277   1.085       .  S
C1263      C1264   1.416       .  A
C1263      C1267   1.444       .  S
C1264      C1265   1.408       .  A
C1265      C1266   1.399       .  A
C1265      H1278   1.084       .  S
C1266      C1268   1.445       .  S
C1267      N1271   1.157       .  T
C1268      N1272   1.157       .  T
C1269      N1724   1.157       .  T
N1274      C1719   1.157       .  T
C1279      C1284   1.398       .  A
C1279      C1293   1.444       .  S
C1280      C1285   1.484       .  S
C1280      C1281   1.402       .  A
C1281      C1282   1.402       .  A
C1281      H1300   1.085       .  S
C1282      C1283   1.417       .  A
C1282      C1294   1.444       .  S
C1284      H1299   1.084       .  S
C1285      C1290   1.410       .  A
C1286      C1287   1.399   1_556  A
C1286      H1301   1.085       .  S
C1287      C1291   1.445       .  S
C1288      C1289   1.405       .  A
C1289      C1290   1.401   1_554  A
C1289      H1302   1.085       .  S
C1290      C1292   1.444       .  S
C1291      N1295   1.158       .  T
C1292      N1296   1.157       .  T
C1293      N1298   1.157       .  T
C1294      N1297   1.157       .  T
C1303      C1304   1.412   1_565  A
C1303      C1308   1.400   1_556  A
C1303      C1317   1.444       .  S
C1304      C1309   1.486   1_545  S
C1304      C1755   1.403       .  A
C1305      C1754   1.403       .  A
C1305      C1306   1.399   1_556  A
C1305      H1324   1.085       .  S
C1306      C1757   1.415       .  A
C1306      C1318   1.445       .  S
C1307      C1756   1.415       .  A
C1307      C1308   1.403   1_545  A
C1308      H1323   1.085       .  S
C1309      C1310   1.401       .  A
C1309      C1764   1.410       .  A
C1310      C1311   1.399       .  A
C1310      H1325   1.085   1_565  S
C1311      C1312   1.420       .  A
C1311      C1315   1.444       .  S
C1312      C1763   1.409       .  A
C1313      C1762   1.409       .  A
C1313      C1314   1.399       .  A
C1313      H1326   1.085       .  S
C1314      C1759   1.409       .  A
C1314      C1316   1.444       .  S
C1315      N1319   1.157   1_565  T
C1316      N1320   1.157       .  T
C1317      N1322   1.157       .  T
C1318      N1321   1.158       .  T
C1327      C1328   1.409       .  A
C1327      C1332   1.397   1_556  A
C1327      C1341   1.444       .  S
C1328      C1333   1.482       .  S
C1328      C1329   1.402       .  A
C1329      C1330   1.402   1_556  A
C1329      H1348   1.085       .  S
C1330      C1331   1.416       .  A
C1330      C1342   1.444       .  S
C1331      C1332   1.405       .  A
C1332      H1347   1.085       .  S
C1333      C1334   1.402       .  A
C1333      C1338   1.408       .  A
C1334      C1335   1.402       .  A
C1334      H1349   1.085       .  S
C1335      C1336   1.415       .  A
C1335      C1339   1.444       .  S
C1336      C1337   1.407       .  A
C1337      C1338   1.398       .  A
C1337      H1350   1.085       .  S
C1338      C1340   1.444       .  S
C1339      N1343   1.157       .  T
C1340      N1344   1.157       .  T
C1341      N1346   1.157       .  T
C1342      N1345   1.157       .  T
C1351      N1352   1.358       .  A
C1351      N1356   1.360       .  A
C1351      C1781   1.483       .  S
N1352      C1353   1.357       .  A
C1353      N1354   1.356       .  A
C1353      C1465   1.461       .  S
N1354      C1355   1.355       .  A
C1355      N1356   1.357       .  A
C1355      C1532   1.463       .  S
C1357      N1358   1.359       .  A
C1357      N1362   1.359       .  A
C1357      C1786   1.483       .  S
N1358      C1359   1.357       .  A
C1359      N1360   1.356       .  A
C1359      C1506   1.464       .  S
N1360      C1361   1.357       .  A
C1361      N1362   1.359       .  A
C1361      C1583   1.465       .  S
O1363      V1371   1.898       .  S
O1363      C1373   1.263       .  A
O1364      V1371   1.898       .  S
O1364      C1374   1.264       .  A
O1365      V1371   1.898       .  S
O1365      C1375   1.264       .  A
O1366      V1371   1.896       .  S
O1366      C1376   1.264       .  A
O1367      V1372   1.896       .  S
O1367      C1376   1.263       .  A
O1368      V1372   1.895       .  S
O1368      C1375   1.263       .  A
O1369      V1372   1.899       .  S
O1369      C1374   1.264       .  A
O1370      V1372   1.899       .  S
O1370      C1373   1.264       .  A
V1371      V1372   2.089       .  T
C1373      C1561   1.466       .  S
C1374      C1537   1.465       .  S
C1375      C1443   1.463       .  S
C1376      C1483   1.463       .  S
O1377      V1385   1.895       .  S
O1377      C1387   1.263       .  A
O1378      V1385   1.896       .  S
O1378      C1388   1.263       .  A
O1379      V1385   1.899       .  S
O1379      C1389   1.264       .  A
O1380      V1385   1.900       .  S
O1380      C1390   1.264       .  A
O1381      V1386   1.899       .  S
O1381      C1390   1.264       .  A
O1382      V1386   1.899       .  S
O1382      C1389   1.264       .  A
O1383      V1386   1.897       .  S
O1383      C1388   1.263       .  A
O1384      V1386   1.898       .  S
O1384      C1387   1.264       .  A
V1385      V1386   2.089       .  T
C1387      C1399   1.463       .  S
C1389      C1411   1.466       .  S
C1391      N1392   1.360       .  A
C1391      N1396   1.357       .  A
C1391      C1757   1.479       .  S
N1392      C1393   1.359       .  A
C1393      N1394   1.358       .  A
C1393      C1464   1.465       .  S
N1394      C1395   1.356       .  A
C1395      N1396   1.356       .  A
C1395      C1427   1.464       .  S
C1397      C1762   1.492       .  S
N1398      C1399   1.356       .  A
C1399      N1400   1.356       .  A
N1400      C1401   1.357       .  A
C1401      N1402   1.358       .  A
C1401      C1504   1.464       .  S
C1403      N1404   1.358       .  A
C1403      N1408   1.359       .  A
C1403      C1738   1.482       .  S
C1405      N1406   1.357       .  A
C1405      C1530   1.465       .  S
N1406      C1407   1.358       .  A
C1407      C1426   1.464       .  S
C1409      N1410   1.360       .  A
C1409      N1414   1.360       .  A
C1409      C1733   1.489       .  S
N1410      C1411   1.357       .  A
C1411      N1412   1.357       .  A
N1412      C1413   1.357       .  A
C1413      N1414   1.359       .  A
C1413      C1582   1.467       .  S
O1415      V1423   1.898       .  S
O1415      C1425   1.264       .  A
O1416      V1423   1.898       .  S
O1416      C1426   1.264       .  A
O1417      V1423   1.900       .  S
O1417      C1427   1.264       .  A
O1418      V1423   1.901       .  S
O1419      V1424   1.894       .  S
O1420      V1424   1.894       .  S
O1420      C1427   1.263       .  A
O1421      V1424   1.897       .  S
O1421      C1426   1.263       .  A
O1422      V1424   1.898       .  S
O1422      C1425   1.264       .  A
V1423      V1424   2.089       .  T
C1428      C1451   1.465       .  S
C1429      N1430   1.358       .  A
C1429      N1434   1.361       .  A
C1429      C1709   1.483       .  S
N1430      C1431   1.356       .  A
C1431      N1432   1.355       .  A
C1431      C1557   1.463       .  S
N1432      C1433   1.357       .  A
C1433      N1434   1.360       .  A
C1433      C1479   1.466       .  S
C1435      N1436   1.359       .  A
C1435      N1440   1.357       .  A
C1435      C1714   1.486       .  S
N1436      C1437   1.358       .  A
C1437      N1438   1.358       .  A
C1437      C1531   1.464       .  S
N1438      C1439   1.357       .  A
C1439      N1440   1.356       .  A
C1441      N1442   1.358       .  A
C1441      N1446   1.361       .  A
C1441      C1685   1.485       .  S
N1442      C1443   1.356       .  A
C1443      N1444   1.356       .  A
N1444      C1445   1.357       .  A
C1445      N1446   1.359       .  A
C1445      C1478   1.467       .  S
C1447      N1448   1.357       .  A
C1447      N1452   1.361       .  A
C1447      C1690   1.485       .  S
N1448      C1449   1.355       .  A
C1449      N1450   1.355       .  A
C1449      C1463   1.463       .  S
N1450      C1451   1.357       .  A
C1451      N1452   1.360       .  A
O1453      V1461   1.894       .  S
O1453      C1463   1.263       .  A
O1454      V1461   1.895       .  S
O1454      C1464   1.263       .  A
O1455      V1461   1.894       .  S
O1455      C1465   1.263       .  A
O1456      V1461   1.894       .  S
O1456      C1466   1.263       .  A
O1457      V1462   1.899       .  S
O1457      C1466   1.264       .  A
O1458      V1462   1.897       .  S
O1458      C1465   1.263       .  A
O1459      V1462   1.901       .  S
O1459      C1464   1.264       .  A
O1460      V1462   1.899       .  S
O1460      C1463   1.264       .  A
V1461      V1462   2.089       .  T
O1467      V1475   1.899       .  S
O1468      V1475   1.897       .  S
O1468      C1478   1.264       .  A
O1469      V1475   1.897       .  S
O1469      C1479   1.264       .  A
O1470      V1475   1.897       .  S
O1471      V1476   1.899       .  S
O1471      C1480   1.264       .  A
O1472      C1479   1.264       .  A
O1473      C1478   1.264       .  A
O1474      V1476   1.899       .  S
O1474      C1477   1.265       .  A
C1477      C1485   1.466       .  S
C1480      C1511   1.465       .  S
C1481      N1482   1.357       .  A
C1481      N1486   1.360       .  A
C1481      C1661   1.480       .  S
N1482      C1483   1.355       .  A
C1483      N1484   1.356       .  A
N1484      C1485   1.357       .  A
C1485      N1486   1.360       .  A
C1487      N1488   1.359       .  A
C1487      N1492   1.358       .  A
C1487      C1666   1.484       .  S
N1488      C1489   1.358       .  A
C1489      N1490   1.356       .  A
C1489      C1503   1.465       .  S
N1490      C1491   1.356       .  A
C1491      N1492   1.356       .  A
O1493      V1501   1.897       .  S
O1493      C1503   1.263       .  A
O1494      V1501   1.895       .  S
O1494      C1504   1.263       .  A
O1495      V1501   1.899       .  S
O1495      C1505   1.264       .  A
O1496      V1501   1.899       .  S
O1496      C1506   1.264       .  A
O1497      V1502   1.896       .  S
O1497      C1506   1.263       .  A
O1498      V1502   1.896       .  S
O1498      C1505   1.263       .  A
O1499      V1502   1.899       .  S
O1499      C1504   1.264       .  A
O1500      V1502   1.899       .  S
O1500      C1503   1.265       .  A
V1501      V1502   2.089       .  T
C1507      N1508   1.357       .  A
C1507      N1512   1.358       .  A
C1507      C1637   1.473       .  S
N1508      C1509   1.356       .  A
C1509      N1510   1.357       .  A
C1509      C1558   1.462       .  S
N1510      C1511   1.358       .  A
C1511      N1512   1.359       .  A
C1513      N1514   1.362       .  A
C1513      N1518   1.359       .  A
C1513      C1642   1.494       .  S
N1514      C1515   1.359       .  A
C1515      N1516   1.356       .  A
N1516      C1517   1.355       .  A
C1517      N1518   1.356       .  A
O1519      V1527   1.898       .  S
O1519      C1529   1.264       .  A
O1520      V1527   1.899       .  S
O1520      C1530   1.264       .  A
O1521      V1527   1.898       .  S
O1522      V1527   1.897       .  S
O1522      C1532   1.264       .  A
O1523      V1528   1.896       .  S
O1523      C1532   1.263       .  A
O1524      C1531   1.263       .  A
O1525      V1528   1.897       .  S
O1525      C1530   1.264       .  A
O1526      V1528   1.897       .  S
O1526      C1529   1.264       .  A
V1527      V1528   2.089       .  T
C1529      C1543   1.464       .  S
C1533      N1534   1.359       .  A
C1533      N1538   1.358       .  A
C1533      C1618   1.483       .  S
N1534      C1535   1.358       .  A
C1535      N1536   1.358       .  A
C1535      C1556   1.467       .  S
N1536      C1537   1.358       .  A
C1537      N1538   1.357       .  A
C1539      N1540   1.359       .  A
C1539      N1544   1.358       .  A
C1539      C1613   1.485       .  S
N1540      C1541   1.357       .  A
C1541      N1542   1.357       .  A
N1542      C1543   1.357       .  A
C1543      N1544   1.358       .  A
O1545      V1553   1.900       .  S
O1545      C1555   1.265       .  A
O1546      V1553   1.901       .  S
O1547      C1557   1.263       .  A
O1548      V1553   1.896       .  S
O1548      C1558   1.263       .  A
O1549      V1554   1.897   1_545  S
O1550      V1554   1.899       .  S
O1550      C1557   1.264       .  A
O1551      V1554   1.899       .  S
O1551      C1556   1.264       .  A
O1552      V1554   1.899   1_545  S
C1555      C1563   1.467       .  S
C1559      N1560   1.360       .  A
C1559      N1564   1.360       .  A
C1559      C1589   1.487       .  S
N1560      C1561   1.359       .  A
C1561      N1562   1.357       .  A
N1562      C1563   1.357       .  A
C1563      N1564   1.358       .  A
C1565      N1566   1.361       .  A
C1565      N1570   1.359       .  A
C1565      C1594   1.489       .  S
N1566      C1567   1.360       .  A
C1567      N1568   1.358       .  A
C1567      C1581   1.468       .  S
N1568      C1569   1.357       .  A
C1569      N1570   1.358       .  A
O1571      V1579   1.900       .  S
O1571      C1581   1.264       .  A
O1572      V1579   1.899       .  S
O1572      C1582   1.264       .  A
O1573      V1579   1.898       .  S
O1573      C1583   1.264       .  A
O1574      V1579   1.898       .  S
O1574      C1584   1.263       .  A
O1575      V1580   1.897       .  S
O1575      C1584   1.264       .  A
O1576      V1580   1.898       .  S
O1576      C1583   1.263       .  A
O1577      V1580   1.900       .  S
O1577      C1582   1.264       .  A
O1578      V1580   1.900       .  S
O1578      C1581   1.265       .  A
V1579      V1580   2.089       .  T
C1585      C1586   1.410       .  A
C1585      C1590   1.402       .  A
C1585      C1599   1.444       .  S
C1586      C1591   1.487       .  S
C1586      C1587   1.402       .  A
C1587      C1588   1.401       .  A
C1587      H1606   1.085       .  S
C1588      C1589   1.417       .  A
C1588      C1600   1.444       .  S
C1589      C1590   1.406       .  A
C1590      H1605   1.085       .  S
C1591      C1592   1.401       .  A
C1591      C1596   1.410       .  A
C1592      C1593   1.401       .  A
C1592      H1607   1.085       .  S
C1593      C1594   1.418       .  A
C1593      C1597   1.445       .  S
C1594      C1595   1.407       .  A
C1595      C1596   1.402       .  A
C1595      H1608   1.085       .  S
C1596      C1598   1.444       .  S
C1598      N1602   1.157       .  T
C1599      N1604   1.157       .  T
C1600      N1603   1.157       .  T
C1609      C1610   1.408       .  A
C1609      C1614   1.397       .  A
C1609      C1623   1.444       .  S
C1610      C1615   1.483       .  S
C1610      C1611   1.403       .  A
C1611      C1612   1.402       .  A
C1611      H1630   1.085       .  S
C1612      C1613   1.416       .  A
C1612      C1624   1.444       .  S
C1613      C1614   1.406       .  A
C1614      H1629   1.085       .  S
C1615      C1616   1.402       .  A
C1615      C1620   1.409       .  A
C1616      C1617   1.399       .  A
C1616      H1631   1.085       .  S
C1617      C1618   1.416       .  A
C1617      C1621   1.445       .  S
C1618      C1619   1.406       .  A
C1619      C1620   1.400       .  A
C1619      H1632   1.085       .  S
C1620      C1622   1.444       .  S
C1621      N1625   1.157       .  T
C1622      N1626   1.157       .  T
C1624      N1627   1.157       .  T
C1633      C1634   1.410       .  A
C1633      C1638   1.398       .  A
C1633      C1647   1.444       .  S
C1634      C1639   1.482       .  S
C1634      C1635   1.404       .  A
C1635      C1636   1.401       .  A
C1635      H1654   1.084       .  S
C1636      C1637   1.410       .  A
C1636      C1648   1.444       .  S
C1637      C1638   1.403       .  A
C1638      H1653   1.084       .  S
C1639      C1640   1.399       .  A
C1639      C1644   1.407       .  A
C1640      C1641   1.399       .  A
C1640      H1655   1.086       .  S
C1641      C1642   1.422       .  A
C1642      C1643   1.410       .  A
C1643      C1644   1.401       .  A
C1643      H1656   1.085       .  S
C1645      N1649   1.157       .  T
C1646      N1650   1.157       .  T
C1647      N1652   1.157       .  T
C1657      C1658   1.410       .  A
C1657      C1662   1.401       .  A
C1658      C1663   1.480       .  S
C1658      C1659   1.400       .  A
C1659      C1660   1.398       .  A
C1659      H1678   1.085       .  S
C1660      C1661   1.416       .  A
C1660      C1672   1.445       .  S
C1661      C1662   1.405       .  A
C1663      C1664   1.400       .  A
C1663      C1668   1.408       .  A
C1664      C1665   1.400       .  A
C1664      H1679   1.085       .  S
C1665      C1666   1.416       .  A
C1665      C1669   1.443       .  S
C1666      C1667   1.407       .  A
C1667      C1668   1.399       .  A
C1667      H1680   1.085       .  S
C1668      C1670   1.444       .  S
C1669      N1673   1.157       .  T
C1670      N1674   1.157       .  T
C1671      N1676   1.157       .  T
C1672      N1675   1.158       .  T
C1681      C1682   1.410       .  A
C1681      C1686   1.399       .  A
C1681      C1695   1.445       .  S
C1682      C1687   1.485       .  S
C1682      C1683   1.403       .  A
C1683      C1684   1.400       .  A
C1683      H1702   1.085       .  S
C1684      C1685   1.414       .  A
C1685      C1686   1.408       .  A
C1686      H1701   1.085       .  S
C1687      C1688   1.401       .  A
C1687      C1692   1.411       .  A
C1688      C1689   1.399       .  A
C1688      H1703   1.086       .  S
C1689      C1690   1.418       .  A
C1689      C1693   1.445       .  S
C1690      C1691   1.405       .  A
C1691      C1692   1.401       .  A
C1691      H1704   1.085       .  S
C1692      C1694   1.444       .  S
C1693      N1697   1.157       .  T
C1694      N1698   1.157       .  T
C1695      N1700   1.157       .  T
C1696      N1699   1.157   1_455  T
C1705      C1706   1.410       .  A
C1705      C1710   1.398       .  A
C1705      C1719   1.445       .  S
C1706      C1711   1.484       .  S
C1706      C1707   1.404       .  A
C1707      C1708   1.401       .  A
C1707      H1726   1.085       .  S
C1708      C1709   1.413       .  A
C1708      C1720   1.444       .  S
C1709      C1710   1.406       .  A
C1710      H1725   1.085       .  S
C1711      C1712   1.402       .  A
C1711      C1716   1.410       .  A
C1712      C1713   1.400       .  A
C1712      H1727   1.085       .  S
C1713      C1714   1.415       .  A
C1713      C1717   1.444       .  S
C1714      C1715   1.408       .  A
C1715      C1716   1.399       .  A
C1715      H1728   1.084       .  S
C1716      C1718   1.445   1_565  S
C1717      N1721   1.157       .  T
C1718      N1722   1.157       .  T
C1729      C1734   1.398       .  A
C1729      C1743   1.444       .  S
C1730      C1735   1.485       .  S
C1730      C1731   1.402       .  A
C1731      C1732   1.402       .  A
C1731      H1750   1.085       .  S
C1732      C1733   1.417       .  A
C1732      C1744   1.444       .  S
C1734      H1749   1.084       .  S
C1735      C1740   1.410       .  A
C1736      C1737   1.399   1_556  A
C1736      H1751   1.085       .  S
C1737      C1741   1.445       .  S
C1738      C1739   1.405       .  A
C1739      C1740   1.401   1_554  A
C1739      H1752   1.085       .  S
C1740      C1742   1.444       .  S
C1741      N1745   1.157       .  T
C1742      N1746   1.157       .  T
C1743      N1748   1.157       .  T
C1744      N1747   1.157       .  T
C1753      C1754   1.412       .  A
C1753      C1758   1.400   1_556  A
C1753      C1767   1.444       .  S
C1754      C1759   1.486       .  S
C1755      C1756   1.399   1_556  A
C1755      H1774   1.085       .  S
C1756      C1768   1.445       .  S
C1757      C1758   1.403       .  A
C1758      H1773   1.085       .  S
C1759      C1760   1.401       .  A
C1760      C1761   1.400       .  A
C1760      H1775   1.085       .  S
C1761      C1762   1.420       .  A
C1761      C1765   1.444       .  S
C1763      C1764   1.399       .  A
C1763      H1776   1.085       .  S
C1764      C1766   1.444       .  S
C1765      N1769   1.157       .  T
C1766      N1770   1.157       .  T
C1767      N1772   1.157       .  T
C1768      N1771   1.158       .  T
C1777      C1778   1.409       .  A
C1777      C1782   1.397   1_556  A
C1777      C1791   1.444       .  S
C1778      C1783   1.482       .  S
C1778      C1779   1.402       .  A
C1779      C1780   1.402   1_556  A
C1779      H1798   1.085       .  S
C1780      C1781   1.416       .  A
C1780      C1792   1.444       .  S
C1781      C1782   1.405       .  A
C1782      H1797   1.085       .  S
C1783      C1784   1.402       .  A
C1783      C1788   1.408       .  A
C1784      C1785   1.402       .  A
C1784      H1799   1.085       .  S
C1785      C1786   1.414       .  A
C1785      C1789   1.444       .  S
C1786      C1787   1.407       .  A
C1787      C1788   1.399       .  A
C1787      H1800   1.085       .  S
C1788      C1790   1.444       .  S
C1789      N1793   1.157       .  T
C1790      N1794   1.157       .  T
C1791      N1796   1.157       .  T
C1792      N1795   1.157       .  T
