geometry optimzed in LAMMPS
_audit_creation_date              2020-11-30 
_audit_creation_method            'lammps2cif' 
_symmetry_space_group_name_H-M    'P1' 
_symmetry_Int_Tables_number       1 
_symmetry_cell_setting            triclinic 
loop_ 
_symmetry_equiv_pos_as_xyz 
  x,y,z 
_cell_length_a                    82.94994824 
_cell_length_b                    82.62534905789887 
_cell_length_c                    30.923878934315354 
_cell_angle_alpha                 91.27162561295872 
_cell_angle_beta                  89.84443676735359 
_cell_angle_gamma                 121.15462660908443 
loop_ 
_atom_site_label 
_atom_site_type_symbol 
_atom_site_fract_x 
_atom_site_fract_y 
_atom_site_fract_z 
_atom_site_charge 
C1          C  0.67060059  0.21094497  0.57622413    -0.02800
C2          C  0.78181425  0.31977449  0.42094095    -0.02800
In3        In  0.71266202  0.08846983  0.48762149     1.36900
C4          C  0.74784088  0.11776285  0.49204765     0.77200
O5          O  0.72180995  0.08177593  0.42511633    -0.61200
O6          O  0.69508345  0.07940978  0.42706724    -0.52100
C7          C  0.70014299  0.05493106  0.52350200     0.69900
O8          O  0.71727383  0.06610443  0.51530451    -0.47000
C9          C  0.69697389  0.10703121  0.51986952     0.74600
O10         O  0.74095008  0.10547240  0.52102082    -0.58900
O11         O  0.69385025  0.10024036  0.48186486    -0.48900
O12         O  0.73681234  0.11475790  0.46086790    -0.55300
C13         C  0.70723186  0.07838622  0.40455955     0.84800
O14         O  0.68968728  0.06137723  0.51545658    -0.57200
O15         O  0.70753274  0.10359421  0.54212567    -0.60500
In16       In  0.90174761  0.27528453  0.52762211     1.36900
C17         C  0.87328799  0.23957008  0.51702583     0.77200
O18         O  0.90894685  0.26775277  0.59099063    -0.61200
O19         O  0.90902518  0.29345109  0.58758234    -0.52100
C20         C  0.93631291  0.28869104  0.49468239     0.69900
O21         O  0.92490867  0.27122779  0.49901926    -0.47000
C22         C  0.88251475  0.29146774  0.50391167     0.74600
O23         O  0.88208389  0.24976765  0.48540980    -0.58900
O24         O  0.88485039  0.28865325  0.54260211    -0.48900
O25         O  0.87976610  0.24734248  0.55341331    -0.55300
C26         C  0.91114273  0.28230927  0.61079813     0.84800
O27         O  0.92955635  0.29882414  0.50452975    -0.57200
O28         O  0.89049315  0.28636616  0.47664852    -0.60500
In29       In  0.39973557  0.08757654  0.51731879     1.36900
C30         C  0.38932991  0.11322760  0.51534475     0.77200
O31         O  0.38180217  0.07461696  0.57539540    -0.61200
O32         O  0.41002789  0.08059412  0.57622984    -0.52100
C33         C  0.38321488  0.05407882  0.47538242     0.69900
O34         O  0.37461324  0.06259275  0.48450005    -0.47000
C35         C  0.43531713  0.11126053  0.49594972     0.74600
O36         O  0.38908640  0.10400713  0.48194894    -0.58900
O37         O  0.43010352  0.10688791  0.53440770    -0.48900
O38         O  0.39383340  0.10849931  0.54952685    -0.55300
C39         C  0.39483081  0.07463802  0.59646790     0.84800
O40         O  0.40048948  0.06333227  0.48498984    -0.57200
O41         O  0.42230728  0.10300959  0.46797379    -0.60500
In42       In  0.40034274  0.27227504  0.51319480     1.36900
C43         C  0.39349454  0.23702880  0.51478907     0.77200
O44         O  0.38263745  0.26126538  0.45274260    -0.61200
O45         O  0.40877886  0.28720717  0.45025971    -0.52100
C46         C  0.38045361  0.28686833  0.54584304     0.69900
O47         O  0.37384516  0.26926594  0.54361512    -0.47000
C48         C  0.43533366  0.28955199  0.54598077     0.74600
O49         O  0.38684883  0.24330765  0.54295939    -0.58900
O50         O  0.43145919  0.29283433  0.50906408    -0.48900
O51         O  0.40344739  0.24879381  0.48659783    -0.55300
C52         C  0.39421025  0.27487037  0.43015977     0.84800
O53         O  0.39744934  0.29660551  0.53515433    -0.57200
O54         O  0.42112425  0.27794764  0.56729371    -0.60500
C55         C  0.56664809  0.21634923  0.41458450    -0.02800
C56         C  0.57013781  0.32435571  0.59084903    -0.02800
C57         C  0.67391925  0.42670850  0.40814114    -0.02800
In58       In  0.72259443  0.59628097  0.47507956     1.36900
C59         C  0.75820180  0.60434003  0.47384804     0.77200
O60         O  0.72710674  0.61355600  0.53629958    -0.61200
O61         O  0.70878055  0.58383663  0.53800310    -0.52100
C62         C  0.70883724  0.61587423  0.43930931     0.69900
O63         O  0.72593657  0.62340186  0.44997394    -0.47000
C64         C  0.70587544  0.56148440  0.44068101     0.74600
O65         O  0.75130924  0.60902294  0.44362240    -0.58900
O66         O  0.69990716  0.56575010  0.47391264    -0.48900
O67         O  0.74698584  0.59598266  0.50424961    -0.55300
C68         C  0.71630757  0.59941427  0.55857706     0.84800
O69         O  0.69934600  0.59825489  0.44382482    -0.57200
O70         O  0.71984327  0.57534407  0.42326041    -0.60500
In71       In  0.90496173  0.59370399  0.47832392     1.36900
C72         C  0.87884390  0.60338999  0.47745103     0.77200
O73         O  0.91643256  0.61121095  0.41936617    -0.61200
O74         O  0.90944887  0.58255453  0.41580393    -0.52100
C75         C  0.93931903  0.61123209  0.51585488     0.69900
O76         O  0.92989073  0.61918303  0.51193617    -0.47000
C77         C  0.88192746  0.55909231  0.50714444     0.74600
O78         O  0.88926053  0.60654347  0.51021966    -0.58900
O79         O  0.88894170  0.56223155  0.46990248    -0.48900
O80         O  0.88239956  0.59606692  0.44558424    -0.55300
C81         C  0.91530916  0.59784560  0.39629928     0.84800
O82         O  0.93063378  0.59416226  0.50331731    -0.57200
O83         O  0.88763314  0.57371237  0.53089127    -0.60500
C84         C  0.77849843  0.42587288  0.58420623    -0.02800
C85         C  0.67096472  0.20996629  0.90771117    -0.02800
C86         C  0.77739487  0.31896638  0.08984242    -0.02800
In87       In  0.71641516  0.09230386  0.00245784     1.36900
C88         C  0.75175127  0.12193705  0.00812139     0.77200
O89         O  0.71171917  0.10624897  0.94571751    -0.61200
O90         O  0.69698145  0.10335479  0.00400649    -0.52100
C91         C  0.70299257  0.05809069  0.96537310     0.69900
O92         O  0.72013001  0.06875066  0.97567547    -0.47000
C93         C  0.70838218  0.08094083  0.08326903     0.74600
O94         O  0.74606298  0.11036611  0.97630488    -0.58900
O95         O  0.70026589  0.08794287  0.06330669    -0.48900
O96         O  0.73953824  0.11798626  0.03672248    -0.55300
C97         C  0.70045329  0.10954247  0.96612356     0.84800
O98         O  0.69314084  0.06548214  0.97131714    -0.57200
O99         O  0.72050198  0.07951770  0.06152412    -0.60500
In100      In  0.90494942  0.28217238  0.01599749     1.36900
C101        C  0.87525187  0.24680548  0.01904085     0.77200
O102        O  0.89041740  0.28934857  0.06771193    -0.61200
O103        O  0.89317016  0.30068045  0.00528154    -0.52100
C104        C  0.93865599  0.29376036  0.05193520     0.69900
O105        O  0.92811766  0.27731250  0.03650212    -0.47000
C106        C  0.91529152  0.28954897  0.93410095     0.74600
O107        O  0.88479977  0.25557769  0.05237032    -0.58900
O108        O  0.91108840  0.29966186  0.95693711    -0.48900
O109        O  0.88143200  0.25584737  0.98475935    -0.55300
C110        C  0.88645433  0.29872044  0.04271554     0.84800
O111        O  0.93131192  0.30382213  0.05220296    -0.57200
O112        O  0.91469011  0.27600101  0.95365551    -0.60500
In113      In  0.39680948  0.26821645  0.02412847     1.36900
C114        C  0.38463107  0.23121889  0.01655761     0.77200
O115        O  0.41992517  0.27952420  0.97362280    -0.61200
O116        O  0.42701737  0.27853988  0.03867365    -0.52100
C117        C  0.38060091  0.28617676  0.99049639     0.69900
O118        O  0.37379480  0.26862711  0.98464527    -0.47000
C119        C  0.39265804  0.27365884  0.10700822     0.74600
O120        O  0.38666212  0.24107527  0.98403403    -0.58900
O121        O  0.40813552  0.28297935  0.08763996    -0.48900
O122        O  0.38775586  0.24004704  0.05207015    -0.55300
C123        C  0.43269975  0.28267189  0.00052146     0.84800
O124        O  0.39577552  0.29429208  0.01186022    -0.57200
O125        O  0.37896949  0.26193881  0.08330104    -0.60500
In126      In  0.39944674  0.08690954  0.99939030     1.36900
C127        C  0.38788466  0.11171489  0.00123033     0.77200
O128        O  0.41987412  0.10605601  0.05146790    -0.61200
O129        O  0.43039505  0.09946528  0.99540342    -0.52100
C130        C  0.38323942  0.05296054  0.03504948     0.69900
O131        O  0.37407319  0.06070292  0.02536482    -0.47000
C132        C  0.39726898  0.07662793  0.91680861     0.74600
O133        O  0.38538057  0.10117089  0.03265720    -0.58900
O134        O  0.41262663  0.08787504  0.93579298    -0.48900
O135        O  0.39546190  0.10888203  0.96899567    -0.55300
C136        C  0.43413257  0.10861928  0.03074254     0.84800
O137        O  0.40072074  0.06321750  0.02970932    -0.57200
O138        O  0.38288971  0.07054597  0.94027951    -0.60500
C139        C  0.56825572  0.21533849  0.08356124    -0.02800
C140        C  0.56722862  0.32183662  0.92314361    -0.02800
C141        C  0.67709759  0.43259663  0.07706073    -0.02800
In142      In  0.73021996  0.60049852  0.96058705     1.36900
C143        C  0.76631785  0.60980384  0.96259310     0.77200
O144        O  0.72387108  0.58009158  0.01435109    -0.61200
O145        O  0.71397495  0.56915840  0.95080147    -0.52100
C146        C  0.71547120  0.61976967  0.99660709     0.69900
O147        O  0.73168477  0.62774938  0.98036135    -0.47000
C148        C  0.72191742  0.60316464  0.87933627     0.74600
O149        O  0.75921796  0.61465887  0.99271136    -0.58900
O150        O  0.71128516  0.58915332  0.90211594    -0.48900
O151        O  0.75505930  0.60062200  0.93202731    -0.55300
C152        C  0.71515606  0.56562206  0.98972944     0.84800
O153        O  0.70753371  0.60204344  0.99774863    -0.57200
O154        O  0.73657984  0.61587762  0.89852908    -0.60500
In155      In  0.91018370  0.59546525  0.98937317     1.36900
C156        C  0.88350174  0.60382649  0.97900800     0.77200
O157        O  0.89457350  0.57321372  0.93744524    -0.61200
O158        O  0.89774896  0.56464346  0.99951838    -0.52100
C159        C  0.94485675  0.61710132  0.95857366     0.69900
O160        O  0.93668733  0.62357447  0.98097505    -0.47000
C161        C  0.91796703  0.59905672  0.07319296     0.74600
O162        O  0.89681290  0.60905912  0.95241188    -0.58900
O163        O  0.91978765  0.58756029  0.04913929    -0.48900
O164        O  0.88396992  0.59433760  0.00971262    -0.55300
C165        C  0.89079732  0.55969033  0.96194559     0.84800
O166        O  0.93476781  0.59972182  0.94922878    -0.57200
O167        O  0.91267834  0.60881862  0.05392996    -0.60500
C168        C  0.78265406  0.42699114  0.91649912    -0.02800
In169      In  0.11239552  0.37333743  0.00496325     1.36900
C170        C  0.13882388  0.36400880  0.00239083     0.77200
O171        O  0.10020108  0.35403251  0.94663312    -0.61200
O172        O  0.10636465  0.38229992  0.94251874    -0.52100
C173        C  0.07829827  0.35646438  0.04101235     0.69900
O174        O  0.08782236  0.34853318  0.03819708    -0.47000
C175        C  0.13333922  0.40836390  0.03834881     0.74600
O176        O  0.12669615  0.35848955  0.03211952    -0.58900
O177        O  0.12619408  0.40476491  0.00089837    -0.48900
O178        O  0.13721687  0.37407587  0.97471930    -0.55300
C179        C  0.10003001  0.36640372  0.92383256     0.84800
O180        O  0.08682015  0.37322449  0.02838135    -0.57200
O181        O  0.12934304  0.39389821  0.05969150    -0.60500
In182      In  0.29567466  0.37373129  0.01052429     1.36900
C183        C  0.25947291  0.36386901  0.00615285     0.77200
O184        O  0.28817572  0.35606833  0.06960858    -0.61200
O185        O  0.31000648  0.38491717  0.07497618    -0.52100
C186        C  0.31169930  0.35522162  0.97591521     0.69900
O187        O  0.29422719  0.34736383  0.98205683    -0.47000
C188        C  0.30943818  0.40857930  0.98054702     0.74600
O189        O  0.26766194  0.36106316  0.97487754    -0.58900
O190        O  0.31405152  0.40546579  0.01687082    -0.48900
O191        O  0.26968075  0.37117037  0.03938848    -0.55300
C192        C  0.30016502  0.36939682  0.09370618     0.84800
O193        O  0.32065286  0.37272673  0.98439026    -0.57200
O194        O  0.29870145  0.39381594  0.95837587    -0.60500
C195        C  0.23922086  0.54364336  0.08647050    -0.02800
C196        C  0.34475184  0.54329480  0.90986489    -0.02800
In197      In  0.11708284  0.69322364  0.01116736     1.36900
C198        C  0.14576912  0.72890438  0.01134659     0.77200
O199        O  0.10890607  0.70140789  0.07315384    -0.61200
O200        O  0.10650847  0.67458922  0.06863636    -0.52100
C201        C  0.08374422  0.68060894  0.97254460     0.69900
O202        O  0.09448472  0.69771362  0.98371975    -0.47000
C203        C  0.13594578  0.67732948  0.98073407     0.74600
O204        O  0.13343987  0.72208120  0.98155716    -0.58900
O205        O  0.13078913  0.67621736  0.01946371    -0.48900
O206        O  0.14319080  0.71750186  0.04070856    -0.55300
C207        C  0.10465633  0.68628969  0.09167041     0.84800
O208        O  0.09064390  0.67037584  0.97855074    -0.57200
O209        O  0.13086679  0.68613111  0.95679055    -0.60500
In210      In  0.30578365  0.87769645  0.99901943     1.36900
C211        C  0.26959163  0.85097898  0.00214457     0.77200
O212        O  0.29706131  0.88246541  0.93508747    -0.61200
O213        O  0.32505648  0.88829741  0.94144648    -0.52100
C214        C  0.31946875  0.91232492  0.03345925     0.69900
O215        O  0.30276564  0.90218791  0.01985557    -0.47000
C216        C  0.31861114  0.85649486  0.02931642     0.74600
O217        O  0.27758081  0.86328350  0.03220585    -0.58900
O218        O  0.32102601  0.86211897  0.99096956    -0.48900
O219        O  0.28010126  0.85269093  0.97091091    -0.55300
C220        C  0.31265578  0.88795687  0.91719582     0.84800
O221        O  0.32874985  0.90414645  0.03274206    -0.57200
O222        O  0.31037917  0.86253642  0.05316671    -0.60500
C223        C  0.34667431  0.75290235  0.09058155    -0.02800
C224        C  0.23649489  0.64654817  0.91129352    -0.02800
C225        C  0.45253515  0.75797014  0.91291544    -0.02800
In226      In  0.61996640  0.88346741  0.98952899     1.36900
C227        C  0.62846671  0.85626415  0.99079758     0.77200
O228        O  0.63808596  0.89809535  0.04843044    -0.61200
O229        O  0.60842917  0.88430136  0.05458996    -0.52100
C230        C  0.63685878  0.91765182  0.95398164     0.69900
O231        O  0.64492199  0.90826402  0.95693626    -0.47000
C232        C  0.58633770  0.86386870  0.95107068     0.74600
O233        O  0.63559177  0.86937462  0.96362831    -0.58900
O234        O  0.60091218  0.86529605  0.93432061    -0.48900
O235        O  0.61754150  0.85750201  0.01721586    -0.55300
C236        C  0.62431647  0.89374219  0.07297448     0.84800
O237        O  0.62005836  0.90899096  0.96647845    -0.57200
O238        O  0.58925679  0.87304286  0.98618207    -0.60500
In239      In  0.62244346  0.69989064  0.97419498     1.36900
C240        C  0.63321405  0.73664306  0.98213931     0.77200
O241        O  0.63861818  0.70263304  0.91380920    -0.61200
O242        O  0.60894683  0.68374475  0.91302888    -0.52100
C243        C  0.64103850  0.68416903  0.00709953     0.69900
O244        O  0.64843752  0.70182016  0.00386058    -0.47000
C245        C  0.58674899  0.68579417  0.99754405     0.74600
O246        O  0.63070340  0.72654126  0.01445761    -0.58900
O247        O  0.59239656  0.68939699  0.95919473    -0.48900
O248        O  0.63156590  0.72830864  0.94643498    -0.55300
C249        C  0.62412919  0.69092277  0.89233137     0.84800
O250        O  0.62379391  0.67483337  0.99703763    -0.57200
O251        O  0.59939782  0.68868219  0.02474926    -0.60500
C252        C  0.45351644  0.65238569  0.07605095    -0.02800
In253      In  0.62264131  0.70045294  0.49248497     1.36900
C254        C  0.63319852  0.73648883  0.48193212     0.77200
O255        O  0.59736726  0.68519085  0.44755420    -0.61200
O256        O  0.59385343  0.69428275  0.50969210    -0.52100
C257        C  0.64266928  0.68724720  0.45458968     0.69900
O258        O  0.65002159  0.70409819  0.46833040    -0.47000
C259        C  0.62573432  0.69179790  0.57282422     0.74600
O260        O  0.62941885  0.72521808  0.45002966    -0.58900
O261        O  0.63828025  0.70657696  0.55513430    -0.48900
O262        O  0.63259048  0.72949340  0.51801905    -0.55300
C263        C  0.58632352  0.68636154  0.47394481     0.84800
O264        O  0.62498252  0.67767875  0.45724285    -0.57200
O265        O  0.61173078  0.68114795  0.54889476    -0.60500
In266      In  0.62248173  0.88338667  0.47536924     1.36900
C267        C  0.63031630  0.85609727  0.47624363     0.77200
O268        O  0.60071885  0.86834461  0.52716086    -0.61200
O269        O  0.59141262  0.86679096  0.46254017    -0.52100
C270        C  0.64165304  0.91654153  0.51757295     0.69900
O271        O  0.64925890  0.90743732  0.50506279    -0.47000
C272        C  0.62893207  0.89606559  0.39492785     0.74600
O273        O  0.63591952  0.86854705  0.50625443    -0.58900
O274        O  0.61556728  0.89464272  0.41742485    -0.48900
O275        O  0.62110477  0.85796942  0.44657095    -0.55300
C276        C  0.58695644  0.86162285  0.50098755     0.84800
O277        O  0.62412306  0.90806237  0.51117795    -0.57200
O278        O  0.63944601  0.89169561  0.41428966    -0.60500
C279        C  0.45104974  0.65027274  0.40728176    -0.02800
C280        C  0.45270975  0.75902954  0.58049709    -0.02800
C281        C  0.23215114  0.64617630  0.57903860    -0.02800
C282        C  0.34274253  0.75574131  0.42162142    -0.02800
In283      In  0.29952435  0.88111619  0.51668057     1.36900
C284        C  0.26260568  0.85719604  0.50591173     0.77200
O285        O  0.31129410  0.86895046  0.46848053    -0.61200
O286        O  0.30211469  0.85604013  0.52934623    -0.52100
C287        C  0.31407867  0.91471009  0.47955790     0.69900
O288        O  0.29776836  0.90593109  0.49518926    -0.47000
C289        C  0.31148095  0.89339380  0.59733911     0.74600
O290        O  0.27356888  0.86457826  0.47445463    -0.58900
O291        O  0.31966265  0.88767046  0.57243058    -0.48900
O292        O  0.27037369  0.86310888  0.54245379    -0.55300
C293        C  0.30879216  0.85576341  0.49285024     0.84800
O294        O  0.32258435  0.90573038  0.48031334    -0.57200
O295        O  0.29765740  0.89333345  0.58044445    -0.60500
In296      In  0.11369498  0.69704877  0.48986285     1.36900
C297        C  0.13942950  0.73405257  0.48898378     0.77200
O298        O  0.12641491  0.68734902  0.54100526    -0.61200
O299        O  0.13498354  0.68901049  0.47582236    -0.52100
C300        C  0.07989319  0.68162291  0.52736141     0.69900
O301        O  0.09006302  0.69912014  0.52066462    -0.47000
C302        C  0.10024155  0.68571253  0.41049555     0.74600
O303        O  0.13078405  0.72604464  0.52307687    -0.58900
O304        O  0.10754779  0.67824439  0.43177758    -0.48900
O305        O  0.13402430  0.72344163  0.45581265    -0.55300
C306        C  0.13679886  0.68532666  0.51408661     0.84800
O307        O  0.08778816  0.67238161  0.51866301    -0.57200
O308        O  0.09908509  0.69850519  0.43064541    -0.60500
In309      In  0.10960027  0.36730131  0.52408989     1.36900
C310        C  0.13426858  0.35584771  0.51800894     0.77200
O311        O  0.12340038  0.38965667  0.47387489    -0.61200
O312        O  0.13086658  0.39768005  0.53981372    -0.52100
C313        C  0.07555551  0.34961717  0.48583632     0.69900
O314        O  0.08416532  0.34122605  0.49490389    -0.47000
C315        C  0.09799985  0.36413870  0.60499896     0.74600
O316        O  0.12582482  0.35682232  0.48514359    -0.58900
O317        O  0.10379582  0.37907529  0.58404564    -0.48900
O318        O  0.12923306  0.35968437  0.55319671    -0.55300
C319        C  0.13337568  0.40272706  0.50102054     0.84800
O320        O  0.08490247  0.36717739  0.49371234    -0.57200
O321        O  0.09761921  0.35068516  0.58398880    -0.60500
In322      In  0.29339591  0.37072105  0.49928568     1.36900
C323        C  0.25763844  0.36162391  0.50553416     0.77200
O324        O  0.29874989  0.39366794  0.54859771    -0.61200
O325        O  0.31143929  0.40174831  0.48710666    -0.52100
C326        C  0.30688102  0.35122422  0.53787522     0.69900
O327        O  0.29063338  0.34336747  0.52118056    -0.47000
C328        C  0.29799096  0.36510513  0.41612350     0.74600
O329        O  0.26520283  0.35659109  0.53350518    -0.58900
O330        O  0.31156799  0.37644660  0.44038197    -0.48900
O331        O  0.26839752  0.37110471  0.47537119    -0.55300
C332        C  0.30854527  0.40701828  0.52333109     0.84800
O333        O  0.31563393  0.36902278  0.53733203    -0.57200
O334        O  0.28240566  0.35614930  0.43499096    -0.60500
C335        C  0.34456149  0.54406160  0.57746947    -0.02800
C336        C  0.23218541  0.53702302  0.41901297    -0.02800
C337        C  0.26945112  0.52479868  0.45455253    -0.11200
C338        C  0.27783118  0.53667905  0.49092597     0.05900
C339        C  0.27112616  0.54824562  0.50524404    -0.10000
C340        C  0.25670693  0.54852651  0.48268261    -0.11600
C341        C  0.24884738  0.53760957  0.44401811    -0.01400
C342        C  0.25485244  0.52492102  0.43208178    -0.10500
C343        C  0.29440146  0.53810077  0.51241727     0.06000
H344        H  0.27716750  0.55719896  0.53391363     0.07900
H345        H  0.25157400  0.55703557  0.49684441     0.11300
H346        H  0.24841027  0.51529644  0.40461003     0.11600
H347        H  0.27430256  0.51553947  0.44338152     0.07900
C348        C  0.29255168  0.52743456  0.54867280    -0.11200
C349        C  0.30858970  0.52956443  0.56940117    -0.10500
C350        C  0.32700033  0.54293494  0.55549065    -0.01400
C351        C  0.32833842  0.55294716  0.51757050    -0.11600
C352        C  0.31235060  0.55071695  0.49692182    -0.10000
H353        H  0.27870440  0.51739878  0.56077949     0.07900
H354        H  0.30664619  0.52070837  0.59658206     0.11600
H355        H  0.34155705  0.56213725  0.50205978     0.11300
H356        H  0.31399465  0.55880530  0.46839354     0.07900
C357        C  0.33330296  0.49684636  0.52198235    -0.11200
C358        C  0.33132417  0.48539408  0.55689052     0.05900
C359        C  0.33418735  0.49318125  0.59894246    -0.10000
C360        C  0.33884621  0.51190116  0.60606710    -0.11600
C361        C  0.34109908  0.52370664  0.57117706    -0.01400
C362        C  0.33795106  0.51556141  0.52900525    -0.10500
C363        C  0.32601774  0.46532677  0.54948808     0.06000
H364        H  0.33279614  0.48475561  0.62659942     0.07900
H365        H  0.34008557  0.51662941  0.63934634     0.11300
H366        H  0.33892053  0.52376482  0.50121445     0.11600
H367        H  0.33080875  0.49120355  0.48913882     0.07900
C368        C  0.33356824  0.46027362  0.51460636    -0.11200
C369        C  0.32825997  0.44139667  0.50691514    -0.10500
C370        C  0.31535932  0.42711822  0.53403671    -0.01400
C371        C  0.30801169  0.43212833  0.56934449    -0.11600
C372        C  0.31323869  0.45102121  0.57692166    -0.10000
H373        H  0.34363496  0.47093709  0.49324523     0.07900
H374        H  0.33413212  0.43794377  0.47941251     0.11600
H375        H  0.29783101  0.42137653  0.59040834     0.11300
H376        H  0.30692963  0.45436260  0.60368571     0.07900
C377        C  0.15856448  0.44735064  0.43618457    -0.11200
C378        C  0.17293623  0.46000568  0.46503795     0.05900
C379        C  0.17407126  0.45340710  0.50592286    -0.10000
C380        C  0.16110309  0.43487365  0.51770764    -0.11600
C381        C  0.14695033  0.42233135  0.48860277    -0.01400
C382        C  0.14589322  0.42867400  0.44764042    -0.10500
C383        C  0.18690120  0.47979917  0.45233389     0.06000
H384        H  0.18517492  0.46239232  0.52874385     0.07900
H385        H  0.16235057  0.43025192  0.54937967     0.11300
H386        H  0.13504179  0.41927654  0.42470156     0.11600
H387        H  0.15689387  0.45186030  0.40480736     0.07900
C388        C  0.19238414  0.48412456  0.40897025    -0.11200
C389        C  0.20623404  0.50243028  0.39740737    -0.10500
C390        C  0.21519174  0.51710722  0.42893350    -0.01400
C391        C  0.20963170  0.51255808  0.47239147    -0.11600
C392        C  0.19548734  0.49444257  0.48370669    -0.10000
H393        H  0.18656435  0.47320557  0.38387107     0.07900
H394        H  0.21040538  0.50460422  0.36391741     0.11600
H395        H  0.21637723  0.52320269  0.49792842     0.11300
H396        H  0.19147395  0.49196601  0.51732599     0.07900
C397        C  0.20802347  0.34501349  0.54406888    -0.11200
C398        C  0.20082748  0.35042583  0.50965136     0.05900
C399        C  0.21230507  0.35878674  0.47361422    -0.10000
C400        C  0.23056290  0.36206175  0.47235849    -0.11600
C401        C  0.23790251  0.35709644  0.50707840    -0.01400
C402        C  0.22639901  0.34833040  0.54279339    -0.10500
C403        C  0.18216008  0.34893960  0.51247590     0.06000
H404        H  0.20747887  0.36351206  0.44691803     0.07900
H405        H  0.23908390  0.36883205  0.44432384     0.11300
H406        H  0.23169080  0.34431118  0.56993950     0.11600
H407        H  0.19951429  0.33835452  0.57216593     0.07900
C408        C  0.17095012  0.34547163  0.47521398    -0.11200
C409        C  0.15488937  0.34697547  0.47699048    -0.10500
C410        C  0.14958764  0.35170187  0.51616758    -0.01400
C411        C  0.16012852  0.35407026  0.55377996    -0.11600
C412        C  0.17624182  0.35278805  0.55194869    -0.10000
H413        H  0.17486591  0.34208717  0.44441221     0.07900
H414        H  0.14694337  0.34496764  0.44755950     0.11600
H415        H  0.15641582  0.35778652  0.58447181     0.11300
H416        H  0.18458332  0.35580919  0.58116406     0.07900
C417        C  0.18595103  0.77663898  0.45811302    -0.11200
C418        C  0.18823156  0.79038756  0.48920211     0.05900
C419        C  0.17347735  0.78572927  0.51851429    -0.10000
C420        C  0.15734966  0.76754548  0.51812651    -0.11600
C421        C  0.15542771  0.75380028  0.48774283    -0.01400
C422        C  0.16966602  0.75866505  0.45711041    -0.10500
C423        C  0.20639580  0.80893467  0.49275779     0.06000
H424        H  0.17449965  0.79603852  0.54227482     0.07900
H425        H  0.14647120  0.76417347  0.54177688     0.11300
H426        H  0.16859994  0.74825444  0.43352819     0.11600
H427        H  0.19704878  0.77945510  0.43552763     0.07900
C428        C  0.21371425  0.81748423  0.53357304    -0.11200
C429        C  0.23158487  0.83378609  0.53752595    -0.10500
C430        C  0.24265884  0.84190699  0.50083482    -0.01400
C431        C  0.23514382  0.83392105  0.45987868    -0.11600
C432        C  0.21719900  0.81764866  0.45585704    -0.10000
H433        H  0.20604299  0.81111885  0.56280269     0.07900
H434        H  0.23704894  0.83957418  0.56956882     0.11600
H435        H  0.24338167  0.83987342  0.43103699     0.11300
H436        H  0.21193694  0.81172974  0.42382273     0.07900
C437        C  0.31418106  0.81307767  0.49851319    -0.11200
C438        C  0.32219502  0.81317998  0.45830684     0.05900
C439        C  0.32508876  0.82710443  0.42859521    -0.10000
C440        C  0.32061055  0.84089795  0.43945691    -0.11600
C441        C  0.31315006  0.84103850  0.48021671    -0.01400
C442        C  0.30976413  0.82683094  0.50933309    -0.10500
C443        C  0.32783941  0.79904724  0.44815329     0.06000
H444        H  0.33127365  0.82764945  0.39738371     0.07900
H445        H  0.32321168  0.85158279  0.41622515     0.11300
H446        H  0.30376868  0.82638453  0.54076483     0.11600
H447        H  0.31126285  0.80230756  0.52175008     0.07900
C448        C  0.33541201  0.79319925  0.48060169    -0.11200
C449        C  0.34028177  0.77961756  0.47174905    -0.10500
C450        C  0.33869049  0.77198002  0.42959580    -0.01400
C451        C  0.33035108  0.77743146  0.39752810    -0.11600
C452        C  0.32528691  0.79090662  0.40652342    -0.10000
H453        H  0.33757356  0.79909885  0.51314843     0.07900
H454        H  0.34537284  0.77506587  0.49822970     0.11600
H455        H  0.32703821  0.77088544  0.36556673     0.11300
H456        H  0.31881725  0.79451694  0.38111575     0.07900
C457        C  0.21048852  0.59842191  0.51408058    -0.11200
C458        C  0.22634582  0.59653175  0.51006636     0.05900
C459        C  0.24251623  0.60882072  0.53466899    -0.10000
C460        C  0.24350650  0.62371363  0.55905443    -0.11600
C461        C  0.22852110  0.62715893  0.55898891    -0.01400
C462        C  0.21144236  0.61334619  0.53887520    -0.10500
C463        C  0.22637800  0.58197684  0.48062462     0.06000
H464        H  0.25466372  0.60720295  0.53432681     0.07900
H465        H  0.25658970  0.63342739  0.57578954     0.11300
H466        H  0.19891091  0.61421613  0.54097445     0.11600
H467        H  0.19753622  0.58881089  0.49680584     0.07900
C468        C  0.21043094  0.56375035  0.47570591    -0.11200
C469        C  0.21154320  0.54952603  0.45291074    -0.10500
C470        C  0.22886459  0.55296681  0.43578125    -0.01400
C471        C  0.24385307  0.57193650  0.43511513    -0.11600
C472        C  0.24278211  0.58612620  0.45802250    -0.10000
H473        H  0.19731046  0.56017462  0.49116639     0.07900
H474        H  0.19887976  0.53572413  0.45033104     0.11600
H475        H  0.25702644  0.57545939  0.41993454     0.11300
H476        H  0.25504515  0.60028566  0.45905880     0.07900
C477        C  0.16066416  0.66301006  0.57173382    -0.11200
C478        C  0.17550224  0.66693877  0.54331904     0.05900
C479        C  0.17756887  0.67722220  0.50603740    -0.10000
C480        C  0.16503038  0.68324359  0.49708987    -0.11600
C481        C  0.15018710  0.67927721  0.52531407    -0.01400
C482        C  0.14815865  0.66920053  0.56289606    -0.10500
C483        C  0.18909180  0.66078933  0.55282283     0.06000
H484        H  0.18905025  0.68084083  0.48398860     0.07900
H485        H  0.16703156  0.69115043  0.46804845     0.11300
H486        H  0.13674451  0.66584363  0.58498260     0.11600
H487        H  0.15862352  0.65498379  0.60055191     0.07900
C488        C  0.19622015  0.66262164  0.59484357    -0.11200
C489        C  0.20965100  0.65770955  0.60361602    -0.10500
C490        C  0.21603443  0.65016141  0.57085886    -0.01400
C491        C  0.20931362  0.64917624  0.52833479    -0.11600
C492        C  0.19582607  0.65403048  0.51962063    -0.10000
H493        H  0.19191933  0.66854216  0.62078809     0.07900
H494        H  0.21545043  0.66061707  0.63603231     0.11600
H495        H  0.21456641  0.64464372  0.50151530     0.11300
H496        H  0.19076726  0.65262162  0.48669972     0.07900
C497        C  0.26876175  0.67643265  0.49228782    -0.11200
C498        C  0.27841963  0.69438058  0.51219228     0.05900
C499        C  0.27308519  0.69680172  0.55385052    -0.10000
C500        C  0.25835847  0.68142973  0.57521940    -0.11600
C501        C  0.24940473  0.66294645  0.55681771    -0.01400
C502        C  0.25451440  0.66102209  0.51402291    -0.10500
C503        C  0.29437893  0.71028139  0.48967662     0.06000
H504        H  0.28009007  0.71067148  0.56949588     0.07900
H505        H  0.25400428  0.68397167  0.60639793     0.11300
H506        H  0.24720605  0.64767019  0.49628515     0.11600
H507        H  0.27241149  0.67426599  0.45989700     0.07900
C508        C  0.31208476  0.72044100  0.50978047    -0.11200
C509        C  0.32758833  0.73440802  0.48761167    -0.10500
C510        C  0.32596972  0.73870826  0.44427498    -0.01400
C511        C  0.30769444  0.72934623  0.42570624    -0.11600
C512        C  0.29226795  0.71489884  0.44747999    -0.10000
H513        H  0.31400368  0.71735139  0.54258090     0.07900
H514        H  0.34078392  0.74212727  0.50528389     0.11600
H515        H  0.30534058  0.73316329  0.39410089     0.11300
H516        H  0.27858198  0.70751495  0.43164646     0.07900
C517        C  0.42622666  0.77971522  0.51996615    -0.11200
C518        C  0.40785628  0.76385624  0.51755474     0.05900
C519        C  0.40371597  0.74822861  0.54286001    -0.10000
C520        C  0.41791193  0.74762093  0.56592776    -0.11600
C521        C  0.43690828  0.76239720  0.56358018    -0.01400
C522        C  0.44040582  0.77919534  0.54358775    -0.10500
C523        C  0.39302343  0.76315640  0.48849192     0.06000
H524        H  0.38950678  0.73612092  0.54381148     0.07900
H525        H  0.41428926  0.73486912  0.58291607     0.11300
H526        H  0.45417617  0.79188889  0.54461404     0.11600
H527        H  0.42986471  0.79232839  0.50235910     0.07900
C528        C  0.39117072  0.77898643  0.48274327    -0.11200
C529        C  0.37590999  0.77734919  0.45899699    -0.10500
C530        C  0.36176783  0.75967707  0.44134652    -0.01400
C531        C  0.36510561  0.74458614  0.44283525    -0.11600
C532        C  0.38025361  0.74620934  0.46642333    -0.10000
H533        H  0.40109645  0.79248918  0.49793211     0.07900
H534        H  0.37510140  0.78989456  0.45555251     0.11600
H535        H  0.35519163  0.73102086  0.42785678     0.11300
H536        H  0.38173027  0.73396371  0.46812018     0.07900
C537        C  0.40260913  0.61280094  0.45006083    -0.11200
C538        C  0.40666752  0.60092123  0.47340523     0.05900
C539        C  0.42442264  0.60287628  0.46827302    -0.10000
C540        C  0.43842138  0.61760950  0.44402125    -0.11600
C541        C  0.43518048  0.63113646  0.42527117    -0.01400
C542        C  0.41650824  0.62737151  0.42546224    -0.10500
C543        C  0.39251242  0.58686623  0.50351177     0.06000
H544        H  0.42780226  0.59353131  0.48460333     0.07900
H545        H  0.45189668  0.61861431  0.44152289     0.11300
H546        H  0.41313763  0.63683552  0.40962718     0.11600
H547        H  0.38878789  0.61114025  0.45177321     0.07900
C548        C  0.38216607  0.59186206  0.53096647    -0.11200
C549        C  0.36793521  0.57838624  0.55709350    -0.10500
C550        C  0.36301344  0.55925226  0.55523269    -0.01400
C551        C  0.37493708  0.55492090  0.53129197    -0.11600
C552        C  0.38924279  0.56844952  0.50533323    -0.10000
H553        H  0.38487128  0.60617467  0.53168955     0.07900
H554        H  0.35973685  0.58257283  0.57646392     0.11600
H555        H  0.37313317  0.54102298  0.53128691     0.11300
H556        H  0.39735950  0.56428507  0.48557241     0.07900
C557        C  0.46525010  0.72163538  0.54380010    -0.11200
C558        C  0.45425581  0.71365480  0.50627632     0.05900
C559        C  0.44249357  0.72006619  0.49284967    -0.10000
C560        C  0.44148108  0.73408295  0.51672315    -0.11600
C561        C  0.45208210  0.74206055  0.55546861    -0.01400
C562        C  0.46452780  0.73594177  0.56739575    -0.10500
C563        C  0.45426047  0.69803269  0.48194340     0.06000
H564        H  0.43404906  0.71419451  0.46365993     0.07900
H565        H  0.43282648  0.73898463  0.50322467     0.11300
H566        H  0.47371957  0.74227320  0.59533745     0.11600
H567        H  0.47454344  0.71693439  0.55455564     0.07900
C568        C  0.46380637  0.70109615  0.44265344    -0.11200
C569        C  0.46278507  0.68587494  0.41892362    -0.10500
C570        C  0.45130038  0.66702725  0.43253019    -0.01400
C571        C  0.44269222  0.66453152  0.47363691    -0.11600
C572        C  0.44401840  0.67971247  0.49753238    -0.10000
H573        H  0.47215043  0.71528474  0.43051713     0.07900
H574        H  0.47087740  0.68880347  0.38957185     0.11600
H575        H  0.43530601  0.65093700  0.48875746     0.11300
H576        H  0.43693465  0.67712397  0.52832468     0.07900
C577        C  0.53589772  0.82239092  0.49327290    -0.11200
C578        C  0.52989110  0.82033888  0.53666142     0.05900
C579        C  0.54308736  0.83280458  0.56812349    -0.10000
C580        C  0.56161806  0.84627035  0.55675899    -0.11600
C581        C  0.56728119  0.84813532  0.51349176    -0.01400
C582        C  0.55415035  0.83627347  0.48186692    -0.10500
C583        C  0.51021549  0.80515071  0.54878090     0.06000
H584        H  0.53926711  0.83236164  0.60167645     0.07900
H585        H  0.57148297  0.85532744  0.58178523     0.11300
H586        H  0.55820649  0.83723544  0.44827438     0.11600
H587        H  0.52685061  0.81300869  0.46768323     0.07900
C588        C  0.49566593  0.79662364  0.51749534    -0.11200
C589        C  0.47773666  0.78181465  0.52798059    -0.10500
C590        C  0.47284685  0.77590108  0.57096104    -0.01400
C591        C  0.48749223  0.78424368  0.60228171    -0.11600
C592        C  0.50579219  0.79843890  0.59131089    -0.10000
H593        H  0.49784110  0.80120680  0.48447689     0.07900
H594        H  0.46735794  0.77516997  0.50221537     0.11600
H595        H  0.48526796  0.77938640  0.63510154     0.11300
H596        H  0.51649213  0.80367953  0.61636631     0.07900
C597        C  0.50314968  0.66339255  0.39143763    -0.11200
C598        C  0.50871807  0.66279655  0.43392588     0.05900
C599        C  0.49542428  0.65778931  0.46697767    -0.10000
C600        C  0.47718289  0.65371403  0.45793749    -0.11600
C601        C  0.47119140  0.65379317  0.41525036    -0.01400
C602        C  0.48482497  0.65919891  0.38227283    -0.10500
C603        C  0.52852348  0.66829249  0.44424152     0.06000
H604        H  0.49911492  0.65706988  0.50012698     0.07900
H605        H  0.46758727  0.65037974  0.48465850     0.11300
H606        H  0.48183566  0.66099545  0.34936943     0.11600
H607        H  0.51318335  0.66780269  0.36533402     0.07900
C608        C  0.53889025  0.66353478  0.41602094    -0.11200
C609        C  0.55761785  0.66914745  0.42575025    -0.10500
C610        C  0.56632742  0.67956342  0.46393863    -0.01400
C611        C  0.55593478  0.68412488  0.49228699    -0.11600
C612        C  0.53734268  0.67866633  0.48247698    -0.10000
H613        H  0.53250136  0.65538734  0.38654628     0.07900
H614        H  0.56529626  0.66540186  0.40335799     0.11600
H615        H  0.56230664  0.69227932  0.52179739     0.11300
H616        H  0.53001168  0.68295638  0.50454426     0.07900
C617        C  0.63827260  0.78109520  0.43646866    -0.11200
C618        C  0.63973259  0.79145475  0.47465638     0.05900
C619        C  0.64060560  0.78412640  0.51456145    -0.10000
C620        C  0.63936347  0.76667461  0.51641510    -0.11600
C621        C  0.63700483  0.75596091  0.47850143    -0.01400
C622        C  0.63676767  0.76344459  0.43840709    -0.10500
C623        C  0.63877015  0.80895654  0.47340243     0.06000
H624        H  0.64136010  0.79141083  0.54470855     0.07900
H625        H  0.63949617  0.76122295  0.54785083     0.11300
H626        H  0.63497658  0.75547483  0.40867995     0.11600
H627        H  0.63794534  0.78644503  0.40504677     0.07900
C628        C  0.64807026  0.82359817  0.50485547    -0.11200
C629        C  0.64547831  0.83905918  0.50598356    -0.10500
C630        C  0.63379306  0.84030977  0.47526790    -0.01400
C631        C  0.62497362  0.82603372  0.44317920    -0.11600
C632        C  0.62732966  0.81051917  0.44239058    -0.10000
H633        H  0.65726214  0.82307642  0.52882906     0.07900
H634        H  0.65253806  0.84996399  0.53087012     0.11600
H635        H  0.61582263  0.82659879  0.41912598     0.11300
H636        H  0.61958551  0.79942641  0.41829342     0.07900
C637        C  0.46347686  0.65572785  0.20036849    -0.11200
C638        C  0.44574560  0.64971323  0.21800660     0.05900
C639        C  0.43073485  0.64541471  0.18982387    -0.10000
C640        C  0.43334945  0.64640919  0.14468451    -0.11600
C641        C  0.45096441  0.65142497  0.12630538    -0.01400
C642        C  0.46616496  0.65697973  0.15559496    -0.10500
C643        C  0.44341654  0.64796570  0.26579929     0.06000
H644        H  0.41694506  0.64103235  0.20267976     0.07900
H645        H  0.42146869  0.64295435  0.12385000     0.11300
H646        H  0.48042237  0.66267918  0.14466095     0.11600
H647        H  0.47541616  0.65970805  0.22150664     0.07900
C648        C  0.44600938  0.63466227  0.28702852    -0.11200
C649        C  0.44715303  0.63490959  0.33222683    -0.10500
C650        C  0.44659383  0.64901781  0.35783728    -0.01400
C651        C  0.44201502  0.66110461  0.33636615    -0.11600
C652        C  0.44068564  0.66071527  0.29088886    -0.10000
H653        H  0.44785645  0.62447154  0.26845916     0.07900
H654        H  0.44979648  0.62478337  0.34728236     0.11600
H655        H  0.43975083  0.67113698  0.35412310     0.11300
H656        H  0.43828590  0.67089180  0.27523204     0.07900
C657        C  0.64257494  0.68951494  0.78163532    -0.11200
C658        C  0.62613070  0.68207941  0.75607397     0.05900
C659        C  0.60878513  0.67573273  0.77665616    -0.10000
C660        C  0.60807340  0.67778565  0.82137514    -0.11600
C661        C  0.62469488  0.68647501  0.84628552    -0.01400
C662        C  0.64189018  0.69189101  0.82629473    -0.10500
C663        C  0.62725927  0.68290755  0.70817959     0.06000
H664        H  0.59586124  0.67016169  0.75811529     0.07900
H665        H  0.59461783  0.67345828  0.83615229     0.11300
H666        H  0.65484684  0.69835835  0.84502719     0.11600
H667        H  0.65609109  0.69407104  0.76698282     0.07900
C668        C  0.64249020  0.69853820  0.68843656    -0.11200
C669        C  0.64239455  0.70091370  0.64398856    -0.10500
C670        C  0.62700295  0.68781584  0.61838959    -0.01400
C671        C  0.61221105  0.67171119  0.63750380    -0.11600
C672        C  0.61237268  0.66922446  0.68198255    -0.10000
H673        H  0.65405112  0.70953297  0.70751506     0.07900
H674        H  0.65399339  0.71345786  0.62999134     0.11600
H675        H  0.60023015  0.66134030  0.61831439     0.11300
H676        H  0.60059986  0.65683587  0.69597928     0.07900
C677        C  0.53687917  0.67548346  0.98801233    -0.11200
C678        C  0.52976813  0.66939266  0.02961417     0.05900
C679        C  0.54143707  0.66807327  0.06056696    -0.10000
C680        C  0.55995104  0.67315725  0.05033405    -0.11600
C681        C  0.56702258  0.67943122  0.00882344    -0.01400
C682        C  0.55522165  0.68036029  0.97772701    -0.10500
C683        C  0.51041991  0.66492751  0.04067857     0.06000
H684        H  0.53640441  0.66357138  0.09298462     0.07900
H685        H  0.56876000  0.67234338  0.07490498     0.11300
H686        H  0.56027387  0.68518006  0.94544613     0.11600
H687        H  0.52821291  0.67641302  0.96323929     0.07900
C688        C  0.50374115  0.67633517  0.02584303    -0.11200
C689        C  0.48565843  0.67235772  0.03603869    -0.10500
C690        C  0.47371804  0.65717218  0.06301454    -0.01400
C691        C  0.48017893  0.64509447  0.07541022    -0.11600
C692        C  0.49834232  0.64910616  0.06515984    -0.10000
H693        H  0.51254990  0.68846669  0.00623741     0.07900
H694        H  0.48117479  0.68111989  0.02139030     0.11600
H695        H  0.47119745  0.63270030  0.09409629     0.11300
H696        H  0.50285477  0.63967943  0.07594791     0.07900
C697        C  0.61236568  0.89529017  0.19041600    -0.11200
C698        C  0.63026993  0.90463928  0.21039061     0.05900
C699        C  0.64629904  0.91172391  0.18413048    -0.10000
C700        C  0.64442015  0.90875406  0.13921690    -0.11600
C701        C  0.62648584  0.89867785  0.11967946    -0.01400
C702        C  0.61050664  0.89238738  0.14559820    -0.10500
C703        C  0.63196171  0.90551358  0.25843524     0.06000
H704        H  0.66029303  0.91925686  0.19837177     0.07900
H705        H  0.65698416  0.91390860  0.11991803     0.11300
H706        H  0.59649810  0.88461636  0.13139746     0.11600
H707        H  0.59969418  0.88940666  0.20954519     0.07900
C708        C  0.61920046  0.90770760  0.28425276    -0.11200
C709        C  0.61887002  0.90557598  0.32899945    -0.10500
C710        C  0.63135189  0.90131005  0.34897562    -0.01400
C711        C  0.64493831  0.90033381  0.32371753    -0.11600
C712        C  0.64522510  0.90238694  0.27887771    -0.10000
H713        H  0.60907556  0.91053539  0.26971113     0.07900
H714        H  0.60835868  0.90657112  0.34775450     0.11600
H715        H  0.65475445  0.89707891  0.33830210     0.11300
H716        H  0.65515828  0.90046314  0.26004559     0.07900
C717        C  0.63924128  0.78349296  0.94948566    -0.11200
C718        C  0.63817181  0.79133658  0.98944805     0.05900
C719        C  0.63712670  0.78171523  0.02740522    -0.10000
C720        C  0.63636068  0.76434605  0.02530282    -0.11600
C721        C  0.63662608  0.75616779  0.98520136    -0.01400
C722        C  0.63843584  0.76612423  0.94739656    -0.10500
C723        C  0.63678168  0.80869072  0.99124507     0.06000
H724        H  0.63656371  0.78746573  0.05878503     0.07900
H725        H  0.63496200  0.75703518  0.05498821     0.11300
H726        H  0.63858373  0.76017010  0.91594877     0.11600
H727        H  0.63985106  0.79035412  0.91958717     0.07900
C728        C  0.64727482  0.82385076  0.96332117    -0.11200
C729        C  0.64490689  0.83951457  0.96348901    -0.10500
C730        C  0.63199317  0.84035828  0.99155802    -0.01400
C731        C  0.62177635  0.82538111  0.01991013    -0.11600
C732        C  0.62411192  0.80977974  0.01971998    -0.10000
H733        H  0.65728084  0.82357384  0.94123109     0.07900
H734        H  0.65302449  0.85085779  0.94137610     0.11600
H735        H  0.61162892  0.82551841  0.04178546     0.11300
H736        H  0.61553376  0.79827182  0.04109304     0.07900
C737        C  0.45762502  0.74652135  0.79297963    -0.11200
C738        C  0.44620791  0.75161509  0.77079419     0.05900
C739        C  0.43556702  0.75723342  0.79525860    -0.10000
C740        C  0.43655349  0.75813618  0.84062640    -0.11600
C741        C  0.44833259  0.75349811  0.86347870    -0.01400
C742        C  0.45899302  0.74786332  0.83837191    -0.10500
C743        C  0.44653886  0.75260209  0.72244790     0.06000
H744        H  0.42674996  0.76139641  0.77911966     0.07900
H745        H  0.42877680  0.76353779  0.85729831     0.11300
H746        H  0.46888623  0.74498745  0.85400372     0.11600
H747        H  0.46627237  0.74244809  0.77509185     0.07900
C748        C  0.44407367  0.73742436  0.69600018    -0.11200
C749        C  0.44499591  0.73878866  0.65065623    -0.10500
C750        C  0.44943672  0.75580289  0.63025834    -0.01400
C751        C  0.45086995  0.77054412  0.65720348    -0.11600
C752        C  0.44953142  0.76900749  0.70234848    -0.10000
H753        H  0.44119857  0.72437435  0.71044675     0.07900
H754        H  0.44222082  0.72637558  0.63210154     0.11600
H755        H  0.45371816  0.78365131  0.64315865     0.11300
H756        H  0.45138102  0.78093723  0.72173515     0.07900
C757        C  0.53354951  0.83925268  0.93954232    -0.11200
C758        C  0.52959719  0.82354423  0.91328753     0.05900
C759        C  0.54457288  0.82271643  0.89425459    -0.10000
C760        C  0.56324572  0.83673912  0.90377753    -0.11600
C761        C  0.56716265  0.85157907  0.93310038    -0.01400
C762        C  0.55218215  0.85308787  0.94961501    -0.10500
C763        C  0.51018940  0.80697750  0.91089182     0.06000
H764        H  0.54179704  0.81074882  0.87365751     0.07900
H765        H  0.57454367  0.83527805  0.89055006     0.11300
H766        H  0.55484443  0.86446703  0.97210177     0.11600
H767        H  0.52223352  0.84013978  0.95467843     0.07900
C768        C  0.50686442  0.78925688  0.92271063    -0.11200
C769        C  0.48855441  0.77373153  0.92449085    -0.10500
C770        C  0.47284920  0.77540840  0.91449511    -0.01400
C771        C  0.47650861  0.79308359  0.89988798    -0.11600
C772        C  0.49487265  0.80881163  0.89949526    -0.10000
H773        H  0.51849516  0.78748213  0.93142797     0.07900
H774        H  0.48694747  0.76033995  0.93278796     0.11600
H775        H  0.46501711  0.79477098  0.88949995     0.11300
H776        H  0.49715471  0.82235373  0.88981691     0.07900
C777        C  0.45469183  0.73066610  0.01029433    -0.11200
C778        C  0.44881427  0.71263027  0.99284858     0.05900
C779        C  0.44404690  0.70916046  0.94850189    -0.10000
C780        C  0.44496973  0.72326852  0.92238032    -0.11600
C781        C  0.45141065  0.74160937  0.93940772    -0.01400
C782        C  0.45601270  0.74485845  0.98410550    -0.10500
C783        C  0.44783251  0.69749858  0.02034429     0.06000
H784        H  0.43959363  0.69545758  0.93375531     0.07900
H785        H  0.44031487  0.71949490  0.88916946     0.11300
H786        H  0.46069022  0.75860980  0.99890168     0.11600
H787        H  0.45812417  0.73382340  0.04436435     0.07900
C788        C  0.46122395  0.70164402  0.05326579    -0.11200
C789        C  0.46170219  0.68703394  0.07437969    -0.10500
C790        C  0.44954441  0.66794939  0.06129351    -0.01400
C791        C  0.43430792  0.66402573  0.03363387    -0.11600
C792        C  0.43372303  0.67853715  0.01285287    -0.10000
H793        H  0.47204263  0.71611887  0.06101250     0.07900
H794        H  0.47284875  0.69070106  0.09776309     0.11600
H795        H  0.42300650  0.64973514  0.02645186     0.11300
H796        H  0.42236398  0.67483556  0.99010992     0.07900
C797        C  0.22474840  0.62748029  0.79315548    -0.11200
C798        C  0.23856912  0.64251511  0.76881467     0.05900
C799        C  0.25272108  0.65850349  0.79186699    -0.10000
C800        C  0.25289400  0.65956140  0.83725284    -0.11600
C801        C  0.23873709  0.64473328  0.86165874    -0.01400
C802        C  0.22458406  0.62878521  0.83838397    -0.10500
C803        C  0.23758999  0.64209488  0.71999083     0.06000
H804        H  0.26334769  0.67073124  0.77501321     0.07900
H805        H  0.26362659  0.67259010  0.85264567     0.11300
H806        H  0.21313180  0.61726908  0.85553050     0.11600
H807        H  0.21376257  0.61464553  0.77753781     0.07900
C808        C  0.22030508  0.63106004  0.69770102    -0.11200
C809        C  0.21913430  0.63181695  0.65272415    -0.10500
C810        C  0.23487897  0.64454047  0.62825479    -0.01400
C811        C  0.25245701  0.65437823  0.64997076    -0.11600
C812        C  0.25376362  0.65318974  0.69496048    -0.10000
H813        H  0.20736513  0.62223519  0.71478769     0.07900
H814        H  0.20550885  0.62319235  0.63707956     0.11600
H815        H  0.26534737  0.66291962  0.63248156     0.11300
H816        H  0.26757335  0.66106418  0.70995894     0.07900
C817        C  0.36370094  0.76222499  0.20930061    -0.11200
C818        C  0.34850938  0.74775933  0.23200771     0.05900
C819        C  0.33384149  0.73289635  0.20721332    -0.10000
C820        C  0.33376754  0.73329569  0.16171680    -0.11600
C821        C  0.34770507  0.74920430  0.13950461    -0.01400
C822        C  0.36311032  0.76314628  0.16435884    -0.10500
C823        C  0.34769107  0.74895335  0.28075630     0.06000
H824        H  0.32197465  0.72115305  0.22266725     0.07900
H825        H  0.32232089  0.72132765  0.14481227     0.11300
H826        H  0.37452972  0.77536240  0.14896685     0.11600
H827        H  0.37602444  0.77334714  0.22602776     0.07900
C828        C  0.35782384  0.76660040  0.30281424    -0.11200
C829        C  0.35672931  0.76817561  0.34761450    -0.10500
C830        C  0.34438510  0.75248121  0.37239936    -0.01400
C831        C  0.33498667  0.73459389  0.35094090    -0.11600
C832        C  0.33656199  0.73288251  0.30592132    -0.10000
H833        H  0.36633455  0.77956324  0.28573243     0.07900
H834        H  0.36489329  0.78206769  0.36290196     0.11600
H835        H  0.32658584  0.72179025  0.36870554     0.11300
H836        H  0.32910562  0.71887234  0.29115362     0.07900
C837        C  0.39369652  0.77713392  0.02668245    -0.11200
C838        C  0.39673817  0.76200069  0.02168594     0.05900
C839        C  0.38584833  0.74573424  0.04592284    -0.10000
C840        C  0.37107254  0.74389664  0.07137087    -0.11600
C841        C  0.36603638  0.75781464  0.07131671    -0.01400
C842        C  0.37864349  0.77517069  0.05157400    -0.10500
C843        C  0.41066516  0.76263696  0.99032780     0.06000
H844        H  0.38839562  0.73414252  0.04405576     0.07900
H845        H  0.36236853  0.73075428  0.08788849     0.11300
H846        H  0.37669233  0.78710622  0.05374992     0.11600
H847        H  0.40238944  0.79014320  0.00967734     0.07900
C848        C  0.42934924  0.77783841  0.99039930    -0.11200
C849        C  0.44284149  0.77717610  0.96417836    -0.10500
C850        C  0.43785421  0.76151002  0.93586194    -0.01400
C851        C  0.41874644  0.74680437  0.93468429    -0.11600
C852        C  0.40543255  0.74733527  0.96147298    -0.10000
H853        H  0.43376898  0.78972972  0.01267304     0.07900
H854        H  0.45729410  0.78843928  0.96872219     0.11600
H855        H  0.41430937  0.73434814  0.91428659     0.11300
H856        H  0.39104419  0.73548802  0.96042892     0.07900
C857        C  0.31883294  0.71548045  0.99871454    -0.11200
C858        C  0.30007483  0.70784363  0.01116787     0.05900
C859        C  0.29656490  0.71462008  0.05013796    -0.10000
C860        C  0.31140396  0.72866308  0.07556272    -0.11600
C861        C  0.33040109  0.73583322  0.06437400    -0.01400
C862        C  0.33360054  0.72918411  0.02437970    -0.10500
C863        C  0.28435504  0.69331756  0.98294028     0.06000
H864        H  0.28232265  0.70917391  0.06119115     0.07900
H865        H  0.30799780  0.73416022  0.10399252     0.11300
H866        H  0.34742774  0.73515590  0.01057236     0.11600
H867        H  0.32222733  0.71144371  0.96805027     0.07900
C868        C  0.28652576  0.68028429  0.95723470    -0.11200
C869        C  0.27152380  0.66627835  0.93220799    -0.10500
C870        C  0.25365662  0.66450795  0.93243686    -0.01400
C871        C  0.25176658  0.67788319  0.95795267    -0.11600
C872        C  0.26688762  0.69216653  0.98187270    -0.10000
H873        H  0.29962071  0.68039046  0.95750592     0.07900
H874        H  0.27359178  0.65614668  0.91403191     0.11600
H875        H  0.23846377  0.67710478  0.96177589     0.11300
H876        H  0.26465526  0.70212027  0.00025368     0.07900
C877        C  0.30310414  0.89614699  0.80329070    -0.11200
C878        C  0.31985071  0.90052036  0.78201609     0.05900
C879        C  0.33474277  0.90169166  0.80646904    -0.10000
C880        C  0.33265694  0.89797219  0.85074794    -0.11600
C881        C  0.31570284  0.89315040  0.87135663    -0.01400
C882        C  0.30110694  0.89260417  0.84736540    -0.10500
C883        C  0.32089661  0.90218448  0.73409858     0.06000
H884        H  0.34792922  0.90526440  0.79134901     0.07900
H885        H  0.34415689  0.89855396  0.86865669     0.11300
H886        H  0.28786498  0.88891784  0.86243150     0.11600
H887        H  0.29113676  0.89464133  0.78565480     0.07900
C888        C  0.33015068  0.89494410  0.70939467    -0.11200
C889        C  0.32820487  0.89332138  0.66434069    -0.10500
C890        C  0.31675975  0.89864010  0.64324152    -0.01400
C891        C  0.30866597  0.90715251  0.66742890    -0.11600
C892        C  0.31088690  0.90910561  0.71231356    -0.10000
H893        H  0.33789287  0.88937166  0.72486808     0.07900
H894        H  0.33464443  0.88676253  0.64633981     0.11600
H895        H  0.30000654  0.91164916  0.65181913     0.11300
H896        H  0.30411223  0.91537324  0.73005719     0.07900
C897        C  0.31987035  0.81791823  0.09065663    -0.11200
C898        C  0.33174198  0.81449984  0.06429255     0.05900
C899        C  0.34052829  0.82633722  0.02906069    -0.10000
C900        C  0.33666504  0.84033196  0.01872410    -0.11600
C901        C  0.32428103  0.84323626  0.04392505    -0.01400
C902        C  0.31627190  0.83225271  0.08068318    -0.10500
C903        C  0.33469741  0.79844098  0.07205989     0.06000
H904        H  0.35029262  0.82467624  0.00893589     0.07900
H905        H  0.34318965  0.84873096  0.99047482     0.11300
H906        H  0.30659164  0.83418144  0.10055784     0.11600
H907        H  0.31278537  0.80909248  0.11797820     0.07900
C908        C  0.33522888  0.79255256  0.11401431    -0.11200
C909        C  0.33892887  0.77805107  0.12063563    -0.10500
C910        C  0.34271434  0.76924079  0.08544507    -0.01400
C911        C  0.34115578  0.77467708  0.04346396    -0.11600
C912        C  0.33720877  0.78891477  0.03691916    -0.10000
H913        H  0.33310677  0.79934439  0.14193790     0.07900
H914        H  0.33865314  0.77389624  0.15361360     0.11600
H915        H  0.34315634  0.76789053  0.01534931     0.11300
H916        H  0.33605957  0.79238283  0.00398040     0.07900
C917        C  0.09421938  0.69459245  0.20594964    -0.11200
C918        C  0.09131266  0.67824291  0.22631405     0.05900
C919        C  0.09114937  0.66381648  0.20093206    -0.10000
C920        C  0.09490932  0.66617264  0.15676501    -0.11600
C921        C  0.09866897  0.68288665  0.13704292    -0.01400
C922        C  0.09778773  0.69684793  0.16172359    -0.10500
C923        C  0.09051995  0.67723756  0.27419854     0.06000
H924        H  0.08857748  0.65088584  0.21536457     0.07900
H925        H  0.09536843  0.65512501  0.13830250     0.11300
H926        H  0.10059964  0.70985814  0.14720995     0.11600
H927        H  0.09474106  0.70612757  0.22445466     0.07900
C928        C  0.09960641  0.66935655  0.29604230    -0.11200
C929        C  0.10157383  0.67099740  0.34090031    -0.10500
C930        C  0.09480594  0.68083159  0.36476935    -0.01400
C931        C  0.08476113  0.68775949  0.34352201    -0.11600
C932        C  0.08248498  0.68582652  0.29860880    -0.10000
H933        H  0.10623247  0.66291139  0.27844265     0.07900
H934        H  0.10944864  0.66559738  0.35659017     0.11600
H935        H  0.07927395  0.69525763  0.36141578     0.11300
H936        H  0.07501400  0.69164982  0.28290112     0.07900
C937        C  0.16684272  0.66638572  0.91031902    -0.11200
C938        C  0.17276609  0.65767429  0.93975803     0.05900
C939        C  0.16541537  0.65445625  0.98184595    -0.10000
C940        C  0.15297233  0.66028313  0.99453375    -0.11600
C941        C  0.14759090  0.66954260  0.96555984    -0.01400
C942        C  0.15440867  0.67227161  0.92310639    -0.10500
C943        C  0.18747316  0.65311529  0.92790650     0.06000
H944        H  0.16984211  0.64809199  0.00564712     0.07900
H945        H  0.14798754  0.65801628  0.02752673     0.11300
H946        H  0.15046695  0.67933252  0.90005940     0.11600
H947        H  0.17196615  0.66884568  0.87747049     0.07900
C948        C  0.20266417  0.66526483  0.90176347    -0.11200
C949        C  0.21763388  0.66233707  0.89502062    -0.10500
C950        C  0.21829271  0.64750044  0.91526176    -0.01400
C951        C  0.20212959  0.63430625  0.93797589    -0.11600
C952        C  0.18710390  0.63723709  0.94465382    -0.10000
H953        H  0.20350754  0.67763099  0.88813618     0.07900
H954        H  0.22942127  0.67247772  0.87608295     0.11600
H955        H  0.20095208  0.62178020  0.95131829     0.11300
H956        H  0.17522990  0.62711227  0.96339851     0.07900
C957        C  0.19196654  0.77256061  0.04446274    -0.11200
C958        C  0.19520861  0.78462385  0.00997289     0.05900
C959        C  0.18149930  0.77863393  0.97702401    -0.10000
C960        C  0.16509897  0.76072136  0.97799267    -0.11600
C961        C  0.16220093  0.74843738  0.01175865    -0.01400
C962        C  0.17564903  0.75465699  0.04532255    -0.10500
C963        C  0.21339879  0.80280642  0.00712752     0.06000
H964        H  0.18358872  0.78773522  0.95025896     0.07900
H965        H  0.15491040  0.75632600  0.95186797     0.11300
H966        H  0.17378842  0.74549405  0.07179045     0.11600
H967        H  0.20237739  0.77670232  0.06999771     0.07900
C968        C  0.22151401  0.81471727  0.04383136    -0.11200
C969        C  0.23950254  0.83093649  0.04188163    -0.10500
C970        C  0.24976476  0.83534883  0.00336457    -0.01400
C971        C  0.24138885  0.82380443  0.96632764    -0.11600
C972        C  0.22336987  0.80774347  0.96814316    -0.10000
H973        H  0.21404549  0.81130550  0.07418775     0.07900
H974        H  0.24564393  0.83962624  0.07085973     0.11600
H975        H  0.24897736  0.82691173  0.93614563     0.11300
H976        H  0.21755296  0.79874661  0.93948233     0.07900
C977        C  0.33704702  0.55657470  0.79407629    -0.11200
C978        C  0.34889156  0.55276651  0.76841281     0.05900
C979        C  0.35990510  0.54694264  0.79019024    -0.10000
C980        C  0.35882355  0.54466055  0.83507298    -0.11600
C981        C  0.34595267  0.54704326  0.86028668    -0.01400
C982        C  0.33552585  0.55368949  0.83894153    -0.10500
C983        C  0.34915317  0.55389367  0.71944725     0.06000
H984        H  0.36909383  0.54350475  0.77282504     0.07900
H985        H  0.36756865  0.54014166  0.85018001     0.11300
H986        H  0.32630592  0.55701008  0.85660016     0.11600
H987        H  0.32887346  0.56191795  0.77990781     0.07900
C988        C  0.33401539  0.55282946  0.69611369    -0.11200
C989        C  0.33317929  0.55150104  0.65071517    -0.10500
C990        C  0.34678289  0.54983642  0.62666112    -0.01400
C991        C  0.36280321  0.55278243  0.64975247    -0.11600
C992        C  0.36408159  0.55501769  0.69497286    -0.10000
H993        H  0.32225070  0.55229229  0.71252872     0.07900
H994        H  0.32133765  0.55109643  0.63532212     0.11600
H995        H  0.37407468  0.55246060  0.63278329     0.11300
H996        H  0.37669331  0.55709042  0.71044920     0.07900
C997        C  0.42762616  0.61750362  0.98085338    -0.11200
C998        C  0.41313417  0.60151801  0.00076841     0.05900
C999        C  0.41321544  0.60078233  0.04617304    -0.10000
C1000       C  0.42665295  0.61641885  0.07122155    -0.11600
C1001       C  0.44014280  0.63333853  0.05134210    -0.01400
C1002       C  0.44111395  0.63291935  0.00561440    -0.10500
C1003       C  0.39732916  0.58644181  0.97413208     0.06000
H1004       H  0.40238585  0.58840653  0.06236533     0.07900
H1005       H  0.42599722  0.61519230  0.10593589     0.11300
H1006       H  0.45163097  0.64525598  0.98876518     0.11600
H1007       H  0.42820807  0.61829690  0.94591427     0.07900
C1008       C  0.38809597  0.59133192  0.94384191    -0.11200
C1009       C  0.37215908  0.57735061  0.92137992    -0.10500
C1010       C  0.36473246  0.55789784  0.92859720    -0.01400
C1011       C  0.37548169  0.55319186  0.95535254    -0.11600
C1012       C  0.39115322  0.56725370  0.97888315    -0.10000
H1013       H  0.39267300  0.60604017  0.93904195     0.07900
H1014       H  0.36476986  0.58177578  0.90045146     0.11600
H1015       H  0.37178343  0.53875916  0.95953478     0.11300
H1016       H  0.39848529  0.56313877  0.00083973     0.07900
C1017       C  0.23646022  0.55731802  0.20655316    -0.11200
C1018       C  0.24180512  0.54626469  0.22929796     0.05900
C1019       C  0.24778451  0.53570439  0.20533695    -0.10000
C1020       C  0.24777393  0.53568332  0.15990672    -0.11600
C1021       C  0.24237961  0.54670121  0.13650100    -0.01400
C1022       C  0.23662603  0.55747053  0.16112592    -0.10500
C1023       C  0.24002750  0.54482222  0.27754658     0.06000
H1024       H  0.25166383  0.52674202  0.22171988     0.07900
H1025       H  0.25146437  0.52648903  0.14282877     0.11300
H1026       H  0.23120722  0.56531162  0.14567929     0.11600
H1027       H  0.23168634  0.56556144  0.22398256     0.07900
C1028       C  0.22371714  0.54214655  0.29808136    -0.11200
C1029       C  0.22155722  0.53980750  0.34296198    -0.10500
C1030       C  0.23566412  0.54017316  0.36931176    -0.01400
C1031       C  0.25251599  0.54405212  0.34858452    -0.11600
C1032       C  0.25441833  0.54581605  0.30345137    -0.10000
H1033       H  0.21233229  0.54133642  0.27920460     0.07900
H1034       H  0.20857091  0.53734951  0.35727702     0.11600
H1035       H  0.26449826  0.54594776  0.36666319     0.11300
H1036       H  0.26737318  0.54834210  0.28880000     0.07900
C1037       C  0.23366629  0.61610114  0.00765437    -0.11200
C1038       C  0.23576438  0.60184522  0.98824303     0.05900
C1039       C  0.23806000  0.60184993  0.94327392    -0.10000
C1040       C  0.23823907  0.61586353  0.91809042    -0.11600
C1041       C  0.23532357  0.62991157  0.93697134    -0.01400
C1042       C  0.23338173  0.62982435  0.98251887    -0.10500
C1043       C  0.23571715  0.58710011  0.01497959     0.06000
H1044       H  0.24018792  0.59122831  0.92773271     0.07900
H1045       H  0.24116205  0.61573376  0.88411131     0.11300
H1046       H  0.23175445  0.64062190  0.99880902     0.11600
H1047       H  0.23205340  0.61650733  0.04236492     0.07900
C1048       C  0.24898679  0.59210502  0.04837674    -0.11200
C1049       C  0.24945696  0.57812649  0.07223250    -0.10500
C1050       C  0.23605985  0.55868937  0.06506383    -0.01400
C1051       C  0.22262910  0.55392226  0.03150447    -0.11600
C1052       C  0.22258015  0.56790332  0.00675821    -0.10000
H1053       H  0.25946374  0.60684046  0.05490325     0.07900
H1054       H  0.26064552  0.58247697  0.09589418     0.11600
H1055       H  0.21276974  0.53934975  0.02224565     0.11300
H1056       H  0.21234501  0.56370554  0.98078461     0.07900
C1057       C  0.28858921  0.55267973  0.05323903    -0.11200
C1058       C  0.28569734  0.54736184  0.00888234     0.05900
C1059       C  0.26808621  0.54184246  0.99055069    -0.10000
C1060       C  0.25364304  0.54075684  0.01587146    -0.11600
C1061       C  0.25614981  0.54539665  0.06065180    -0.01400
C1062       C  0.27419505  0.55208425  0.07849261    -0.10500
C1063       C  0.30076172  0.54730178  0.98193637     0.06000
H1064       H  0.26531167  0.53831055  0.95642461     0.07900
H1065       H  0.24018553  0.53590081  0.00031650     0.11300
H1066       H  0.27737203  0.55685989  0.11186467     0.11600
H1067       H  0.30188152  0.55701641  0.06901657     0.07900
C1068       C  0.31986771  0.55960727  0.99212788    -0.11200
C1069       C  0.33392022  0.55876115  0.96909615    -0.10500
C1070       C  0.32961248  0.54611956  0.93321857    -0.01400
C1071       C  0.31036858  0.53411436  0.92246113    -0.11600
C1072       C  0.29623721  0.53457634  0.94648106    -0.10000
H1073       H  0.32415023  0.56987437  0.01850002     0.07900
H1074       H  0.34808287  0.56780223  0.98127667     0.11600
H1075       H  0.30623220  0.52382541  0.89609688     0.11300
H1076       H  0.28172623  0.52444406  0.93788115     0.07900
C1077       C  0.31534092  0.38102102  0.21106344    -0.11200
C1078       C  0.30360267  0.36353845  0.23045153     0.05900
C1079       C  0.29165379  0.34770663  0.20404496    -0.10000
C1080       C  0.29091101  0.34949236  0.15937145    -0.11600
C1081       C  0.30211654  0.36714221  0.14026772    -0.01400
C1082       C  0.31458248  0.38280871  0.16639849    -0.10500
C1083       C  0.30254712  0.36228668  0.27823522     0.06000
H1084       H  0.28259545  0.33402284  0.21810496     0.07900
H1085       H  0.28125715  0.33715672  0.13992735     0.11300
H1086       H  0.32336283  0.39658470  0.15248281     0.11600
H1087       H  0.32450764  0.39350899  0.23065816     0.07900
C1088       C  0.31889733  0.37171604  0.30424478    -0.11200
C1089       C  0.31753861  0.37212393  0.34935497    -0.10500
C1090       C  0.29981118  0.36308678  0.36911938    -0.01400
C1091       C  0.28353732  0.35313849  0.34317029    -0.11600
C1092       C  0.28488660  0.35275900  0.29824082    -0.10000
H1093       H  0.33269658  0.37905498  0.28962889     0.07900
H1094       H  0.33029834  0.37986001  0.36868233     0.11600
H1095       H  0.26968155  0.34618760  0.35751947     0.11300
H1096       H  0.27204020  0.34565552  0.27905867     0.07900
C1097       C  0.30936932  0.44870725  0.92332734    -0.11200
C1098       C  0.32370880  0.46472985  0.94573954     0.05900
C1099       C  0.33414290  0.46207029  0.97763384    -0.10000
C1100       C  0.32992457  0.44387168  0.98795592    -0.11600
C1101       C  0.31528680  0.42787884  0.96635149    -0.01400
C1102       C  0.30524768  0.43049518  0.93345246    -0.10500
C1103       C  0.32780066  0.48415688  0.93634411     0.06000
H1104       H  0.34554458  0.47409722  0.99483144     0.07900
H1105       H  0.33795609  0.44229479  0.01331946     0.11300
H1106       H  0.29376084  0.41841256  0.91656047     0.11600
H1107       H  0.30096040  0.45019592  0.89880697     0.07900
C1108       C  0.32764315  0.48961807  0.89378706    -0.11200
C1109       C  0.33273413  0.50822488  0.88492638    -0.10500
C1110       C  0.33862475  0.52226360  0.91832415    -0.01400
C1111       C  0.33689797  0.51602703  0.96123068    -0.11600
C1112       C  0.33201431  0.49748543  0.97003529    -0.10000
H1113       H  0.32394624  0.47958782  0.86703897     0.07900
H1114       H  0.33173720  0.51123725  0.85160554     0.11600
H1115       H  0.33986853  0.52578233  0.98821479     0.11300
H1116       H  0.33146475  0.49355189  0.00341713     0.07900
C1117       C  0.08561349  0.37352695  0.81395046    -0.11200
C1118       C  0.08636937  0.35952231  0.78890258     0.05900
C1119       C  0.08906687  0.34616197  0.81000050    -0.10000
C1120       C  0.09246817  0.34775139  0.85456180    -0.11600
C1121       C  0.09348025  0.36284909  0.87858650    -0.01400
C1122       C  0.08937833  0.37531925  0.85827800    -0.10500
C1123       C  0.08689358  0.36039293  0.74094441     0.06000
H1124       H  0.08982469  0.33523391  0.79183970     0.07900
H1125       H  0.09543713  0.33786121  0.86970916     0.11300
H1126       H  0.08965585  0.38682429  0.87643799     0.11600
H1127       H  0.08294266  0.38364558  0.79899448     0.07900
C1128       C  0.07961399  0.34386484  0.71490668    -0.11200
C1129       C  0.08273961  0.34504555  0.67033755    -0.10500
C1130       C  0.09288785  0.36274686  0.65093366    -0.01400
C1131       C  0.09934634  0.37922030  0.67644113    -0.11600
C1132       C  0.09651690  0.37807196  0.72099191    -0.10000
H1133       H  0.07190489  0.33003016  0.72907492     0.07900
H1134       H  0.07753235  0.33213754  0.65116867     0.11600
H1135       H  0.10737380  0.39303865  0.66226271     0.11300
H1136       H  0.10273037  0.39112044  0.73996537     0.07900
C1137       C  0.17417510  0.45083863  0.09494025    -0.11200
C1138       C  0.17426893  0.46585713  0.07417342     0.05900
C1139       C  0.15957097  0.46182376  0.04527427    -0.10000
C1140       C  0.14572072  0.44306250  0.03513069    -0.11600
C1141       C  0.14608681  0.42800369  0.05440819    -0.01400
C1142       C  0.16004678  0.43206529  0.08557111    -0.10500
C1143       C  0.19059726  0.48545136  0.07903235     0.06000
H1144       H  0.15940540  0.47315434  0.02872602     0.07900
H1145       H  0.13506967  0.44030584  0.01109344     0.11300
H1146       H  0.16067337  0.42072273  0.10078910     0.11600
H1147       H  0.18536175  0.45363814  0.11744529     0.07900
C1148       C  0.18819971  0.50061878  0.09028125    -0.11200
C1149       C  0.20375854  0.51915772  0.09282412    -0.10500
C1150       C  0.22198421  0.52317537  0.08169758    -0.01400
C1151       C  0.22419196  0.50760228  0.07198091    -0.11600
C1152       C  0.20876112  0.48911527  0.07057321    -0.10000
H1153       H  0.17430955  0.49807618  0.09758272     0.07900
H1154       H  0.20153961  0.53049140  0.10285522     0.11600
H1155       H  0.23792102  0.50948628  0.06624048     0.11300
H1156       H  0.21099478  0.47762233  0.06219981     0.07900
C1157       C  0.17156406  0.34618210  0.03027046    -0.11200
C1158       C  0.18546635  0.35477406  0.99835743     0.05900
C1159       C  0.18297253  0.36502772  0.96616998    -0.10000
C1160       C  0.16749985  0.36744367  0.96699665    -0.11600
C1161       C  0.15406787  0.35964439  0.99997481    -0.01400
C1162       C  0.15597466  0.34855449  0.03100677    -0.10500
C1163       C  0.20339494  0.35474395  0.00068454     0.06000
H1164       H  0.19348316  0.37198496  0.94143704     0.07900
H1165       H  0.16639795  0.37598171  0.94247471     0.11300
H1166       H  0.14573157  0.34218584  0.05650898     0.11600
H1167       H  0.17299682  0.33800758  0.05521692     0.07900
C1168       C  0.21311781  0.35862112  0.04028803    -0.11200
C1169       C  0.23111990  0.36111727  0.04201785    -0.10500
C1170       C  0.23977378  0.35958275  0.00427557    -0.01400
C1171       C  0.22981399  0.35499977  0.96485788    -0.11600
C1172       C  0.21184061  0.35269545  0.96304182    -0.10000
H1173       H  0.20715433  0.36057231  0.06972352     0.07900
H1174       H  0.23845177  0.36466550  0.07288240     0.11600
H1175       H  0.23614341  0.35376356  0.93525582     0.11300
H1176       H  0.20466364  0.34963942  0.93205680     0.07900
C1177       C  0.03755319  0.67668130  0.94265109    -0.11200
C1178       C  0.02535622  0.65691552  0.93943068     0.05900
C1179       C  0.03311696  0.64533802  0.94241974    -0.10000
C1180       C  0.05231896  0.65320548  0.95069536    -0.11600
C1181       C  0.06424708  0.67283015  0.95654495    -0.01400
C1182       C  0.05679378  0.68455387  0.95136038    -0.10500
C1183       C  0.00450311  0.64820720  0.93773922     0.06000
H1184       H  0.02421995  0.63008236  0.94087228     0.07900
H1185       H  0.05764222  0.64380967  0.95468076     0.11300
H1186       H  0.06569404  0.69975040  0.95555339     0.11600
H1187       H  0.03214408  0.68605531  0.93974349     0.07900
C1188       C  0.99589840  0.65630249  0.96182234    -0.11200
C1189       C  0.97634082  0.64664660  0.96630788    -0.10500
C1190       C  0.96495017  0.62861775  0.94714266    -0.01400
C1191       C  0.97335245  0.62094300  0.92109379    -0.11600
C1192       C  0.99291240  0.63070178  0.91615264    -0.10000
H1193       H  0.00429474  0.66959444  0.97941815     0.07900
H1194       H  0.97023783  0.65285699  0.98677795     0.11600
H1195       H  0.96487364  0.60709110  0.90580106     0.11300
H1196       H  0.99899754  0.62421891  0.89657933     0.07900
C1197       C  0.85651644  0.51576583  0.89731908    -0.11200
C1198       C  0.85131994  0.50164289  0.92808798     0.05900
C1199       C  0.86043021  0.50662704  0.96860294    -0.10000
C1200       C  0.87385005  0.52544206  0.97886391    -0.11600
C1201       C  0.87846054  0.53965443  0.94879774    -0.01400
C1202       C  0.86997237  0.53462021  0.90760381    -0.10500
C1203       C  0.83502700  0.48226377  0.92016108     0.06000
H1204       H  0.85649272  0.49612505  0.99319905     0.07900
H1205       H  0.88010273  0.52895183  0.01096631     0.11300
H1206       H  0.87327559  0.54532277  0.88385187     0.11600
H1207       H  0.84979912  0.51229000  0.86572040     0.07900
C1208       C  0.81848908  0.47979455  0.90168496    -0.11200
C1209       C  0.80216890  0.46200592  0.89990579    -0.10500
C1210       C  0.80166893  0.44606045  0.91718645    -0.01400
C1211       C  0.81880748  0.44836367  0.93227321    -0.11600
C1212       C  0.83519350  0.46631371  0.93437435    -0.10000
H1213       H  0.81785821  0.49178456  0.89051776     0.07900
H1214       H  0.78952511  0.46084068  0.88673147     0.11600
H1215       H  0.81973225  0.43648073  0.94272243     0.11300
H1216       H  0.84797284  0.46778094  0.94761267     0.07900
C1217       C  0.67829693  0.62990255  0.03784853    -0.11200
C1218       C  0.68528037  0.64847666  0.02376530     0.05900
C1219       C  0.70314519  0.65793187  0.00430817    -0.10000
C1220       C  0.71337557  0.64892291  0.99775471    -0.11600
C1221       C  0.70598027  0.63013262  0.01001466    -0.01400
C1222       C  0.68846504  0.62081012  0.03079557    -0.10500
C1223       C  0.67355322  0.65749837  0.02610903     0.06000
H1224       H  0.70892785  0.67204438  0.99218256     0.07900
H1225       H  0.72671477  0.65640490  0.98117463     0.11300
H1226       H  0.68238749  0.60630298  0.04059534     0.11600
H1227       H  0.66478812  0.62221772  0.05363072     0.07900
C1228       C  0.65387952  0.64657765  0.01981893    -0.11200
C1229       C  0.64320147  0.65522176  0.01614419    -0.10500
C1230       C  0.65186902  0.67502283  0.01845627    -0.01400
C1231       C  0.67133051  0.68592186  0.02700673    -0.11600
C1232       C  0.68200873  0.67727414  0.03103646    -0.10000
H1233       H  0.64677912  0.63137492  0.01537862     0.07900
H1234       H  0.62824549  0.64640679  0.00942770     0.11600
H1235       H  0.67843265  0.70120052  0.02911705     0.11300
H1236       H  0.69701126  0.68618073  0.03697306     0.07900
C1237       C  0.81480882  0.62229197  0.00178962    -0.11200
C1238       C  0.82134303  0.61652773  0.96599420     0.05900
C1239       C  0.81042519  0.61045254  0.92784765    -0.10000
C1240       C  0.79290961  0.60906498  0.92638631    -0.11600
C1241       C  0.78590406  0.61376757  0.96295825    -0.01400
C1242       C  0.79726169  0.62092431  0.00028246    -0.10500
C1243       C  0.83837354  0.61494845  0.96977997     0.06000
H1244       H  0.81491420  0.60576793  0.89981284     0.07900
H1245       H  0.78452476  0.60362899  0.89701453     0.11300
H1246       H  0.79228447  0.62478268  0.02882091     0.11600
H1247       H  0.82304265  0.62737227  0.03142607     0.07900
C1248       C  0.85072123  0.61891804  0.93481918    -0.11200
C1249       C  0.86569417  0.61567531  0.93774337    -0.10500
C1250       C  0.86846149  0.60827672  0.97552778    -0.01400
C1251       C  0.85636105  0.60465784  0.01059610    -0.11600
C1252       C  0.84155221  0.60798074  0.00781063    -0.10000
H1253       H  0.84872329  0.62440046  0.90514542     0.07900
H1254       H  0.87485739  0.61860608  0.91027567     0.11600
H1255       H  0.85818199  0.59899264  0.04020263     0.11300
H1256       H  0.83216215  0.60441017  0.03501514     0.07900
C1257       C  0.67317676  0.47340863  0.02698945    -0.11200
C1258       C  0.68955979  0.48945973  0.04338274     0.05900
C1259       C  0.70155339  0.48686948  0.07040876    -0.10000
C1260       C  0.69722065  0.46872570  0.08102143    -0.11600
C1261       C  0.68047177  0.45242187  0.06599620    -0.01400
C1262       C  0.66880014  0.45520249  0.03761476    -0.10500
C1263       C  0.69474167  0.50882510  0.03063025     0.06000
H1264       H  0.71462071  0.49888593  0.08247745     0.07900
H1265       H  0.70705524  0.46732454  0.10123190     0.11300
H1266       H  0.65657596  0.44352416  0.02197627     0.11600
H1267       H  0.66374639  0.47489904  0.00554756     0.07900
C1268       C  0.69202920  0.51235104  0.98780339    -0.11200
C1269       C  0.69823914  0.53076256  0.97494751    -0.10500
C1270       C  0.70731392  0.54607876  0.00457341    -0.01400
C1271       C  0.70950615  0.54255436  0.04769836    -0.11600
C1272       C  0.70327270  0.52411119  0.06060413    -0.10000
H1273       H  0.68571531  0.50097489  0.96376990     0.07900
H1274       H  0.69634050  0.53305560  0.94147100     0.11600
H1275       H  0.71635118  0.55408473  0.07125983     0.11300
H1276       H  0.70528546  0.52182654  0.09399813     0.07900
C1277       C  0.75739378  0.44486544  0.99254978    -0.11200
C1278       C  0.73848339  0.43078090  0.98627959     0.05900
C1279       C  0.73390704  0.41560677  0.95755385    -0.10000
C1280       C  0.74809249  0.41449954  0.93554515    -0.11600
C1281       C  0.76718292  0.42903752  0.93990436    -0.01400
C1282       C  0.77155618  0.44400440  0.96993139    -0.10500
C1283       C  0.72353931  0.43180630  0.01006577     0.06000
H1284       H  0.71935886  0.40441782  0.95283239     0.07900
H1285       H  0.74415845  0.40231659  0.91457145     0.11300
H1286       H  0.78595603  0.45489532  0.97725571     0.11600
H1287       H  0.76120478  0.45653826  0.01511991     0.07900
C1288       C  0.72241017  0.43050746  0.05526377    -0.11200
C1289       C  0.70786556  0.43091322  0.07760778    -0.10500
C1290       C  0.69399248  0.43253489  0.05507313    -0.01400
C1291       C  0.69608158  0.43492218  0.00969708    -0.11600
C1292       C  0.71038825  0.43422071  0.98753378    -0.10000
H1293       H  0.73271213  0.42897533  0.07323589     0.07900
H1294       H  0.70778326  0.43011412  0.11240093     0.11600
H1295       H  0.68610438  0.43673833  0.99109156     0.11300
H1296       H  0.71122310  0.43560546  0.95271373     0.07900
C1297       C  0.60624405  0.37402457  0.94864088    -0.11200
C1298       C  0.60673197  0.37402376  0.99398202     0.05900
C1299       C  0.59234470  0.35865378  0.01565309    -0.10000
C1300       C  0.57887873  0.34266107  0.99220535    -0.11600
C1301       C  0.57990974  0.34134870  0.94653733    -0.01400
C1302       C  0.59269355  0.35806825  0.92512618    -0.10500
C1303       C  0.62391378  0.38823013  0.01763078     0.06000
H1304       H  0.59235405  0.35842658  0.05066086     0.07900
H1305       H  0.56863438  0.33053008  0.01007352     0.11300
H1306       H  0.59293372  0.35888276  0.89037239     0.11600
H1307       H  0.61697862  0.38607939  0.93136906     0.07900
C1308       C  0.64058989  0.38836818  0.01010417    -0.11200
C1309       C  0.65729122  0.40170464  0.03072587    -0.10500
C1310       C  0.65813641  0.41609409  0.05810748    -0.01400
C1311       C  0.64082287  0.41460247  0.06887128    -0.11600
C1312       C  0.62390895  0.40096542  0.04837932    -0.10000
H1313       H  0.64065319  0.37797666  0.98820857     0.07900
H1314       H  0.66947094  0.40053452  0.02456086     0.11600
H1315       H  0.64059608  0.42463729  0.09162189     0.11300
H1316       H  0.61096644  0.40062512  0.05576033     0.07900
C1317       C  0.55553677  0.24410011  0.00762745    -0.11200
C1318       C  0.57227044  0.26191923  0.00800756     0.05900
C1319       C  0.58713220  0.26454254  0.03508186    -0.10000
C1320       C  0.58528024  0.24988564  0.06057641    -0.11600
C1321       C  0.56862242  0.23191928  0.05977568    -0.01400
C1322       C  0.55393183  0.22930344  0.03188859    -0.10500
C1323       C  0.57386482  0.27758750  0.98098271     0.06000
H1324       H  0.60051061  0.27772693  0.03602786     0.07900
H1325       H  0.59718473  0.25239366  0.08022708     0.11300
H1326       H  0.54122804  0.21569197  0.02704980     0.11600
H1327       H  0.54347876  0.24131479  0.98834382     0.07900
C1328       C  0.56239227  0.27368740  0.94397957    -0.11200
C1329       C  0.56146934  0.28813220  0.92348181    -0.10500
C1330       C  0.57202726  0.30701362  0.93913130    -0.01400
C1331       C  0.58603108  0.31114920  0.97074405    -0.11600
C1332       C  0.58636964  0.29669188  0.99253394    -0.10000
H1333       H  0.55354188  0.25939610  0.93141962     0.07900
H1334       H  0.55138689  0.28432510  0.89734770     0.11600
H1335       H  0.59633229  0.32546624  0.98071022     0.11300
H1336       H  0.59601899  0.30072549  0.01960194     0.07900
C1337       C  0.34603410  0.00300299  0.06375576    -0.11200
C1338       C  0.35586739  0.99340704  0.05789272     0.05900
C1339       C  0.37529581  0.00416720  0.04934442    -0.10000
C1340       C  0.38438964  0.02374448  0.04487941    -0.11600
C1341       C  0.37425190  0.03303778  0.04794989    -0.01400
C1342       C  0.35508054  0.02256659  0.05832968    -0.10500
C1343       C  0.34573514  0.97226942  0.05714262     0.06000
H1344       H  0.38338160  0.99743423  0.04383276     0.07900
H1345       H  0.39917031  0.03144880  0.03651474     0.11300
H1346       H  0.34695763  0.02941779  0.06106434     0.11600
H1347       H  0.33120767  0.99536603  0.07152622     0.07900
C1348       C  0.35492348  0.96268254  0.06924565    -0.11200
C1349       C  0.34612468  0.94304702  0.06330801    -0.10500
C1350       C  0.32781102  0.93249836  0.04593822    -0.01400
C1351       C  0.31823486  0.94184638  0.03599874    -0.11600
C1352       C  0.32711827  0.96147719  0.04116673    -0.10000
H1353       H  0.36907724  0.97035630  0.08259045     0.07900
H1354       H  0.35382866  0.93618262  0.07129115     0.11600
H1355       H  0.30417243  0.93410170  0.02211899     0.11300
H1356       H  0.31962003  0.96820612  0.03060149     0.07900
C1357       C  0.51450471  0.18265591  0.09407946    -0.11200
C1358       C  0.51100659  0.16540685  0.07581691     0.05900
C1359       C  0.52650292  0.16381031  0.06376429    -0.10000
C1360       C  0.54487762  0.17941618  0.06680819    -0.11600
C1361       C  0.54834179  0.19721944  0.08174968    -0.01400
C1362       C  0.53287571  0.19810249  0.09805521    -0.10500
C1363       C  0.49132938  0.14958635  0.06705473     0.06000
H1364       H  0.52445530  0.15048369  0.05159792     0.07900
H1365       H  0.55623651  0.17730820  0.05751982     0.11300
H1366       H  0.53497119  0.21124745  0.11169867     0.11600
H1367       H  0.50304164  0.18454832  0.10387231     0.07900
C1368       C  0.47635198  0.14664658  0.09399848    -0.11200
C1369       C  0.45772046  0.13293625  0.08303926    -0.10500
C1370       C  0.45371855  0.12178797  0.04517564    -0.01400
C1371       C  0.46865713  0.12420398  0.01914195    -0.11600
C1372       C  0.48719976  0.13797143  0.02979959    -0.10000
H1373       H  0.47896806  0.15505060  0.12334727     0.07900
H1374       H  0.44643959  0.13133099  0.10369045     0.11600
H1375       H  0.46598203  0.11585127  0.98963019     0.11300
H1376       H  0.49820226  0.13997697  0.00774818     0.07900
C1377       C  0.36971093  0.32509428  0.97926742    -0.11200
C1378       C  0.35219618  0.31581137  0.95752674     0.05900
C1379       C  0.34487043  0.29694182  0.94310580    -0.10000
C1380       C  0.35438099  0.28738996  0.95214951    -0.11600
C1381       C  0.37142438  0.29651874  0.97571760    -0.01400
C1382       C  0.37917849  0.31560909  0.98812114    -0.10500
C1383       C  0.34109123  0.32538809  0.95391791     0.06000
H1384       H  0.33157101  0.28941989  0.92571144     0.07900
H1385       H  0.34812818  0.27272051  0.94185591     0.11300
H1386       H  0.39228270  0.32307771  0.00633235     0.11600
H1387       H  0.37572765  0.33946457  0.99151623     0.07900
C1388       C  0.32151867  0.31535841  0.96101501    -0.11200
C1389       C  0.31167312  0.32491962  0.96542616    -0.10500
C1390       C  0.32117038  0.34473609  0.96302531    -0.01400
C1391       C  0.34043972  0.35461684  0.95310177    -0.11600
C1392       C  0.35024193  0.34506635  0.94831893    -0.10000
H1393       H  0.31397959  0.30025306  0.96584976     0.07900
H1394       H  0.29684237  0.31690579  0.97318347     0.11600
H1395       H  0.34813056  0.36987064  0.95068352     0.11300
H1396       H  0.36518977  0.35323224  0.94180862     0.07900
C1397       C  0.47805980  0.30250316  0.93672067    -0.11200
C1398       C  0.49035993  0.30246858  0.96791938     0.05900
C1399       C  0.48376805  0.29688153  0.01003522    -0.10000
C1400       C  0.46517134  0.29088398  0.02049947    -0.11600
C1401       C  0.45263522  0.29020482  0.98906197    -0.01400
C1402       C  0.45929103  0.29630812  0.94715640    -0.10500
C1403       C  0.50976642  0.30739932  0.95663130     0.06000
H1404       H  0.49300856  0.29703129  0.03492585     0.07900
H1405       H  0.46050563  0.28641165  0.05316776     0.11300
H1406       H  0.44994335  0.29603946  0.92239818     0.11600
H1407       H  0.48278779  0.30672661  0.90397698     0.07900
C1408       C  0.52156766  0.32339839  0.93246245    -0.11200
C1409       C  0.53992756  0.32797197  0.92278757    -0.10500
C1410       C  0.54685941  0.31634290  0.93570050    -0.01400
C1411       C  0.53501418  0.30069880  0.96148982    -0.11600
C1412       C  0.51674296  0.29620323  0.97118101    -0.10000
H1413       H  0.51668829  0.33252000  0.92160020     0.07900
H1414       H  0.54873916  0.34048410  0.90424796     0.11600
H1415       H  0.53966931  0.29191561  0.97531100     0.11300
H1416       H  0.50799849  0.28384929  0.99023227     0.07900
C1417       C  0.37119333  0.14469860  0.03879389    -0.11200
C1418       C  0.37800481  0.15805826  0.00567275     0.05900
C1419       C  0.38702924  0.15524537  0.97029940    -0.10000
C1420       C  0.38955969  0.13980825  0.96845199    -0.11600
C1421       C  0.38330645  0.12682487  0.00208680    -0.01400
C1422       C  0.37387649  0.12926292  0.03707749    -0.10500
C1423       C  0.37702459  0.17557763  0.00905750     0.06000
H1424       H  0.39282083  0.16538412  0.94466446     0.07900
H1425       H  0.39701166  0.13840156  0.94120122     0.11300
H1426       H  0.36887309  0.11943766  0.06341790     0.11600
H1427       H  0.36398445  0.14629499  0.06629309     0.07900
C1428       C  0.37454788  0.18368583  0.97191296    -0.11200
C1429       C  0.37620673  0.20145034  0.97435954    -0.10500
C1430       C  0.38018464  0.21138985  0.01406098    -0.01400
C1431       C  0.38161472  0.20284600  0.05152443    -0.11600
C1432       C  0.38013665  0.18521280  0.04904757    -0.10000
H1433       H  0.37176479  0.17649541  0.94070658     0.07900
H1434       H  0.37492613  0.20764059  0.94503285     0.11600
H1435       H  0.38474105  0.21018590  0.08263074     0.11300
H1436       H  0.38235921  0.17958717  0.07822607     0.07900
C1437       C  0.98892592  0.32750732  0.08880868    -0.11200
C1438       C  0.99806542  0.31806115  0.07381226     0.05900
C1439       C  0.98677034  0.29940001  0.05731590    -0.10000
C1440       C  0.96723104  0.29099040  0.05335768    -0.11600
C1441       C  0.95846552  0.30110295  0.06494678    -0.01400
C1442       C  0.96941926  0.31923560  0.08385120    -0.10500
C1443       C  0.01916369  0.32813898  0.07137351     0.06000
H1444       H  0.99299471  0.29155669  0.04486768     0.07900
H1445       H  0.95914367  0.27698571  0.03856605     0.11300
H1446       H  0.96299927  0.32730625  0.09344892     0.11600
H1447       H  0.99684582  0.34157096  0.10326814     0.07900
C1448       C  0.02985964  0.34785022  0.06571663    -0.11200
C1449       C  0.04919893  0.35706365  0.05807342    -0.10500
C1450       C  0.05846115  0.34688532  0.05536930    -0.01400
C1451       C  0.04811836  0.32737134  0.06255167    -0.11600
C1452       C  0.02874700  0.31813422  0.07085613    -0.10000
H1453       H  0.02325789  0.35620251  0.06488797     0.07900
H1454       H  0.05677458  0.37212597  0.05251770     0.11600
H1455       H  0.05489048  0.31915198  0.06060296     0.11300
H1456       H  0.02129748  0.30307287  0.07612298     0.07900
C1457       C  0.69490520  0.00880257  0.95114330    -0.11200
C1458       C  0.67652942  0.99863581  0.93342773     0.05900
C1459       C  0.66786958  0.00883743  0.92219568    -0.10000
C1460       C  0.67677254  0.02830885  0.93106672    -0.11600
C1461       C  0.69476103  0.03818993  0.95032025    -0.01400
C1462       C  0.70395064  0.02835041  0.95915159    -0.10500
C1463       C  0.66586387  0.97743164  0.93086705     0.06000
H1464       H  0.65397135  0.00173010  0.90749249     0.07900
H1465       H  0.66939499  0.03557281  0.92373202     0.11300
H1466       H  0.71774177  0.03557756  0.97444177     0.11600
H1467       H  0.70200717  0.00157906  0.96102355     0.07900
C1468       C  0.67520931  0.96733698  0.92499536    -0.11200
C1469       C  0.66561333  0.94766923  0.93000521    -0.10500
C1470       C  0.64641102  0.93762039  0.94041011    -0.01400
C1471       C  0.63675339  0.94743174  0.94290142    -0.11600
C1472       C  0.64633765  0.96704574  0.93846609    -0.10000
H1473       H  0.69009372  0.97467739  0.91789221     0.07900
H1474       H  0.67339700  0.94046279  0.92753153     0.11600
H1475       H  0.62192824  0.94009853  0.95079841     0.11300
H1476       H  0.63854432  0.97410293  0.94371230     0.07900
C1477       C  0.79323389  0.16819062  0.05063340    -0.11200
C1478       C  0.80633368  0.17315628  0.01712377     0.05900
C1479       C  0.80165234  0.16053461  0.98145462    -0.10000
C1480       C  0.78410117  0.14367574  0.97876789    -0.11600
C1481       C  0.77086523  0.13903102  0.01175736    -0.01400
C1482       C  0.77572728  0.15134384  0.04796743    -0.10500
C1483       C  0.82434455  0.19182747  0.01823239     0.06000
H1484       H  0.81152756  0.16375405  0.95539433     0.07900
H1485       H  0.78078349  0.13443456  0.95059759     0.11300
H1486       H  0.76581199  0.14816159  0.07392550     0.11600
H1487       H  0.79623390  0.17762414  0.07828743     0.07900
C1488       C  0.83118157  0.20214447  0.98018092    -0.11200
C1489       C  0.84776947  0.21982910  0.98075010    -0.10500
C1490       C  0.85799599  0.22776480  0.01938375    -0.01400
C1491       C  0.85121774  0.21760590  0.05766538    -0.11600
C1492       C  0.83455437  0.19978895  0.05709370    -0.10000
H1493       H  0.82349380  0.19671710  0.94992213     0.07900
H1494       H  0.85249040  0.22740745  0.95080480     0.11600
H1495       H  0.85876555  0.22343429  0.08797614     0.11300
H1496       H  0.82974003  0.19218998  0.08698234     0.07900
C1497       C  0.77779175  0.36513439  0.06269854    -0.11200
C1498       C  0.78110569  0.36634307  0.01787844     0.05900
C1499       C  0.78320166  0.35218419  0.99741901    -0.10000
C1500       C  0.78179073  0.33722154  0.02072840    -0.11600
C1501       C  0.77892235  0.33607746  0.06586066    -0.01400
C1502       C  0.77658337  0.35022146  0.08625084    -0.10500
C1503       C  0.78177236  0.38183874  0.99208040     0.06000
H1504       H  0.78606648  0.35264513  0.96318201     0.07900
H1505       H  0.78331784  0.32654725  0.00347993     0.11300
H1506       H  0.77338069  0.34976636  0.12022248     0.11600
H1507       H  0.77556144  0.37542045  0.07957171     0.07900
C1508       C  0.78869290  0.40007512  0.01004707    -0.11200
C1509       C  0.78907325  0.41434522  0.98555192    -0.10500
C1510       C  0.78320197  0.41118031  0.94167178    -0.01400
C1511       C  0.77565228  0.39264648  0.92449552    -0.11600
C1512       C  0.77508098  0.37835039  0.94909175    -0.10000
H1513       H  0.79393901  0.40342967  0.04302100     0.07900
H1514       H  0.79412708  0.42806733  0.00092933     0.11600
H1515       H  0.76943423  0.38875028  0.89249577     0.11300
H1516       H  0.76879900  0.36432509  0.93455209     0.07900
C1517       C  0.85052048  0.30504764  0.10369742    -0.11200
C1518       C  0.84513225  0.31355802  0.07252798     0.05900
C1519       C  0.85491449  0.31884284  0.03319929    -0.10000
C1520       C  0.86913888  0.31497995  0.02455507    -0.11600
C1521       C  0.87382657  0.30564600  0.05490388    -0.01400
C1522       C  0.86468886  0.30108899  0.09491751    -0.10500
C1523       C  0.82871753  0.31593556  0.07977280     0.06000
H1524       H  0.85102392  0.32519479  0.00819467     0.07900
H1525       H  0.87589962  0.31856969  0.99331340     0.11300
H1526       H  0.86802534  0.29386684  0.11885853     0.11600
H1527       H  0.84357675  0.30114384  0.13466547     0.07900
C1528       C  0.81279623  0.30224416  0.10180927    -0.11200
C1529       C  0.79686422  0.30376414  0.10580396    -0.10500
C1530       C  0.79592449  0.31857495  0.08630714    -0.01400
C1531       C  0.81251393  0.33297814  0.06695973    -0.11600
C1532       C  0.82852951  0.33154798  0.06339824    -0.10000
H1533       H  0.81235512  0.28998539  0.11490218     0.07900
H1534       H  0.78477869  0.29281487  0.12260729     0.11600
H1535       H  0.81350861  0.34559910  0.05480669     0.11300
H1536       H  0.84085287  0.34279119  0.04790151     0.07900
C1537       C  0.59376805  0.20628777  0.99005146    -0.11200
C1538       C  0.61099839  0.21062738  0.00869690     0.05900
C1539       C  0.61436537  0.21635587  0.05254929    -0.10000
C1540       C  0.60079565  0.21757601  0.07721404    -0.11600
C1541       C  0.58318744  0.21272194  0.05900208    -0.01400
C1542       C  0.58022734  0.20747822  0.01458311    -0.10500
C1543       C  0.62548334  0.20950750  0.98217955     0.06000
H1544       H  0.62775084  0.22040715  0.06758615     0.07900
H1545       H  0.60455025  0.22295254  0.11008509     0.11300
H1546       H  0.56724967  0.20428879  0.99872095     0.11600
H1547       H  0.59066058  0.20183712  0.95638257     0.07900
C1548       C  0.62878618  0.21563280  0.93930153    -0.11200
C1549       C  0.64254057  0.21490291  0.91448251    -0.10500
C1550       C  0.65346885  0.20785759  0.93154920    -0.01400
C1551       C  0.65017874  0.20198143  0.97493634    -0.11600
C1552       C  0.63629341  0.20256350  0.99958420    -0.10000
H1553       H  0.62111813  0.22160558  0.92524438     0.07900
H1554       H  0.64509997  0.22080305  0.88259430     0.11600
H1555       H  0.65871896  0.19725164  0.99014524     0.11300
H1556       H  0.63411818  0.19768619  0.03249696     0.07900
C1557       C  0.69053089  0.17691631  0.89157166    -0.11200
C1558       C  0.67647554  0.15992110  0.90922902     0.05900
C1559       C  0.65937402  0.15832830  0.92136185    -0.10000
C1560       C  0.65704960  0.17391944  0.91985484    -0.11600
C1561       C  0.67195896  0.19169531  0.90690245    -0.01400
C1562       C  0.68818648  0.19246005  0.88986765    -0.10500
C1563       C  0.68056381  0.14496162  0.92028840     0.06000
H1564       H  0.64795772  0.14511787  0.93338101     0.07900
H1565       H  0.64360736  0.17191450  0.92934769     0.11300
H1566       H  0.69960135  0.20557934  0.87747947     0.11600
H1567       H  0.70382269  0.17861020  0.88150457     0.07900
C1568       C  0.69122868  0.14026426  0.89296099    -0.11200
C1569       C  0.69712147  0.12807402  0.90692855    -0.10500
C1570       C  0.69250540  0.12046769  0.94846629    -0.01400
C1571       C  0.68123785  0.12457880  0.97490376    -0.11600
C1572       C  0.67535989  0.13666017  0.96102298    -0.10000
H1573       H  0.69537139  0.14635997  0.86128153     0.07900
H1574       H  0.70576852  0.12509268  0.88585356     0.11600
H1575       H  0.67751368  0.11900636  0.00714007     0.11300
H1576       H  0.66749687  0.14024199  0.98321206     0.07900
C1577       C  0.71245213  0.23717222  0.98994883    -0.11200
C1578       C  0.71512990  0.25539314  0.99051423     0.05900
C1579       C  0.70377785  0.25886026  0.96325667    -0.10000
C1580       C  0.69036061  0.24453981  0.93551620    -0.11600
C1581       C  0.68782973  0.22624224  0.93390521    -0.01400
C1582       C  0.69894303  0.22282930  0.96274574    -0.10500
C1583       C  0.73033743  0.27080677  0.01804429     0.06000
H1584       H  0.70546172  0.27275049  0.96288465     0.07900
H1585       H  0.68166428  0.24767246  0.91553067     0.11300
H1586       H  0.69689126  0.20890609  0.96611220     0.11600
H1587       H  0.72060017  0.23386143  0.01140204     0.07900
C1588       C  0.74810730  0.27270908  0.01981815    -0.11200
C1589       C  0.76297576  0.28764791  0.04297697    -0.10500
C1590       C  0.76057600  0.30103351  0.06715101    -0.01400
C1591       C  0.74251123  0.29888344  0.06542020    -0.11600
C1592       C  0.72767107  0.28407747  0.04117674    -0.10000
H1593       H  0.75082525  0.26307442  0.00141630     0.07900
H1594       H  0.77647680  0.28883958  0.03961013     0.11600
H1595       H  0.74003051  0.30902319  0.08222723     0.11300
H1596       H  0.71411802  0.28303990  0.04044422     0.07900
C1597       C  0.76010165  0.41626826  0.70271560    -0.11200
C1598       C  0.77616107  0.41950055  0.72589464     0.05900
C1599       C  0.79202684  0.42290397  0.70190061    -0.10000
C1600       C  0.79206694  0.42379437  0.65678389    -0.11600
C1601       C  0.77667603  0.42237233  0.63376168    -0.01400
C1602       C  0.76030656  0.41761566  0.65753313    -0.10500
C1603       C  0.77654471  0.41981081  0.77460016     0.06000
H1604       H  0.80481051  0.42560554  0.71774275     0.07900
H1605       H  0.80472859  0.42682330  0.63977759     0.11300
H1606       H  0.74754460  0.41496027  0.64179753     0.11600
H1607       H  0.74721907  0.41265485  0.71936652     0.07900
C1608       C  0.76547041  0.42508385  0.79868240    -0.11200
C1609       C  0.76638955  0.42623879  0.84395998    -0.10500
C1610       C  0.77860592  0.42236085  0.86723740    -0.01400
C1611       C  0.79001916  0.41756228  0.84282682    -0.11600
C1612       C  0.78863611  0.41578473  0.79765607    -0.10000
H1613       H  0.75654993  0.42912574  0.78265894     0.07900
H1614       H  0.75828165  0.43136603  0.86023338     0.11600
H1615       H  0.80028490  0.41536650  0.85895260     0.11300
H1616       H  0.79731564  0.41144144  0.78101008     0.07900
C1617       C  0.98923265  0.62230449  0.53337839    -0.11200
C1618       C  0.99883005  0.64143949  0.54718875     0.05900
C1619       C  0.98805987  0.64996590  0.55492611    -0.10000
C1620       C  0.96855441  0.64000234  0.54655951    -0.11600
C1621       C  0.95928237  0.62118190  0.53091391    -0.01400
C1622       C  0.96977609  0.61232551  0.52567700    -0.10500
C1623       C  0.02000304  0.65266555  0.54954347     0.06000
H1624       H  0.99473623  0.66449852  0.56650356     0.07900
H1625       H  0.96083028  0.64718966  0.55118033     0.11300
H1626       H  0.96309472  0.59786161  0.51347527     0.11600
H1627       H  0.99682744  0.61518050  0.52621760     0.07900
C1628       C  0.03033727  0.64392258  0.55892548    -0.11200
C1629       C  0.04995469  0.65359830  0.55389941    -0.10500
C1630       C  0.05984411  0.67242858  0.54045006    -0.01400
C1631       C  0.04980261  0.68163076  0.53415006    -0.11600
C1632       C  0.03015598  0.67186767  0.53829838    -0.10000
H1633       H  0.02323538  0.62936766  0.56892008     0.07900
H1634       H  0.05731739  0.64614941  0.55922645     0.11600
H1635       H  0.05699802  0.69608762  0.52336874     0.11300
H1636       H  0.02290442  0.67915234  0.53021284     0.07900
C1637       C  0.92680567  0.61758794  0.28407204    -0.11200
C1638       C  0.92433386  0.60194920  0.25929948     0.05900
C1639       C  0.92035328  0.58545568  0.28070785    -0.10000
C1640       C  0.91807194  0.58435255  0.32553087    -0.11600
C1641       C  0.91968971  0.59969194  0.34981216    -0.01400
C1642       C  0.92438614  0.61642286  0.32879982    -0.10500
C1643       C  0.92428460  0.60229584  0.21126846     0.06000
H1644       H  0.91812263  0.57306144  0.26270181     0.07900
H1645       H  0.91444173  0.57127145  0.34099977     0.11300
H1646       H  0.92576800  0.62848194  0.34679257     0.11600
H1647       H  0.93028216  0.63065719  0.26882040     0.07900
C1648       C  0.91650158  0.61161529  0.19014944    -0.11200
C1649       C  0.91503859  0.61093871  0.14526191    -0.10500
C1650       C  0.92104879  0.60070336  0.12030836    -0.01400
C1651       C  0.92911584  0.59158468  0.14097165    -0.11600
C1652       C  0.93083588  0.59247441  0.18611615    -0.10000
H1653       H  0.91087662  0.61891094  0.20829820     0.07900
H1654       H  0.90861843  0.61797595  0.13014516     0.11600
H1655       H  0.93392319  0.58365684  0.12230218     0.11300
H1656       H  0.93713174  0.58534797  0.20130080     0.07900
C1657       C  0.84270494  0.51925356  0.56961284    -0.11200
C1658       C  0.83801182  0.50345220  0.54257041     0.05900
C1659       C  0.84849038  0.50614196  0.50476573    -0.10000
C1660       C  0.86301704  0.52417580  0.49385216    -0.11600
C1661       C  0.86757324  0.53991947  0.52070989    -0.01400
C1662       C  0.85739598  0.53728756  0.55887938    -0.10500
C1663       C  0.82239145  0.48421744  0.55370154     0.06000
H1664       H  0.84556359  0.49428834  0.48365033     0.07900
H1665       H  0.87062723  0.52581100  0.46416633     0.11300
H1666       H  0.86047260  0.54923377  0.57986682     0.11600
H1667       H  0.83477076  0.51779050  0.59862524     0.29500
C1668       C  0.81890354  0.47864514  0.59688375    -0.11200
C1669       C  0.80467978  0.46039954  0.60729451    -0.10500
C1670       C  0.79398205  0.44668082  0.57464308    -0.01400
C1671       C  0.79693878  0.45283841  0.53147543    -0.11600
C1672       C  0.81090379  0.47121186  0.52119427    -0.10000
H1673       H  0.82732651  0.48832707  0.62290154     0.07900
H1674       H  0.80232353  0.45747598  0.64124377     0.11600
H1675       H  0.78857693  0.44316637  0.50535599     0.11300
H1676       H  0.81268291  0.47520607  0.48762774     0.07900
C1677       C  0.68224965  0.67737487  0.44484075    -0.11200
C1678       C  0.67336819  0.65977693  0.42242918     0.05900
C1679       C  0.65486752  0.65244984  0.40677661    -0.10000
C1680       C  0.64513560  0.66178284  0.41573091    -0.11600
C1681       C  0.65380806  0.67892147  0.43952270    -0.01400
C1682       C  0.67262778  0.68690505  0.45294189    -0.10500
C1683       C  0.68264281  0.64835991  0.41914070     0.06000
H1684       H  0.64766453  0.63922350  0.38845689     0.07900
H1685       H  0.63064953  0.65536354  0.40488088     0.11300
H1686       H  0.67957463  0.70000653  0.47183965     0.11600
H1687       H  0.69631258  0.68339309  0.45816339     0.07900
C1688       C  0.70240586  0.65710760  0.41736816    -0.11200
C1689       C  0.71105980  0.64644798  0.42132259    -0.10500
C1690       C  0.70012686  0.62679539  0.42641793    -0.01400
C1691       C  0.68042654  0.61788284  0.42486491    -0.11600
C1692       C  0.67179575  0.62851353  0.42165519    -0.10000
H1693       H  0.71125052  0.67227197  0.41430299     0.07900
H1694       H  0.72629094  0.65366770  0.42214197     0.11600
H1695       H  0.67162114  0.60275672  0.42888841     0.11300
H1696       H  0.65660837  0.62116211  0.42378322     0.07900
C1697       C  0.71885811  0.61967550  0.67099083    -0.11200
C1698       C  0.71052646  0.60325455  0.69580424     0.05900
C1699       C  0.70247376  0.58553228  0.67439349    -0.10000
C1700       C  0.70371942  0.58431610  0.62952780    -0.11600
C1701       C  0.71313434  0.60077846  0.60515964    -0.01400
C1702       C  0.72025850  0.61845523  0.62610878    -0.10500
C1703       C  0.71219613  0.60460433  0.74374069     0.06000
H1704       H  0.69613374  0.57261202  0.69246191     0.07900
H1705       H  0.69802610  0.57049192  0.61413550     0.11300
H1706       H  0.72734159  0.63134876  0.60795960     0.11600
H1707       H  0.72484689  0.63352089  0.68644639     0.07900
C1708       C  0.72914440  0.61853964  0.76356957    -0.11200
C1709       C  0.73196117  0.61844800  0.80796373    -0.10500
C1710       C  0.71795795  0.60434603  0.83349693    -0.01400
C1711       C  0.70070294  0.59084130  0.81424469    -0.11600
C1712       C  0.69781131  0.59100830  0.76975146    -0.10000
H1713       H  0.74064753  0.62900204  0.74450013     0.07900
H1714       H  0.74541775  0.62898685  0.82199555     0.11600
H1715       H  0.68962342  0.57990017  0.83338674     0.11300
H1716       H  0.68450633  0.58023761  0.75554417     0.07900
C1717       C  0.80215876  0.60569408  0.51158884    -0.11200
C1718       C  0.81337387  0.61121116  0.47439856     0.05900
C1719       C  0.80661887  0.61549662  0.43718922    -0.10000
C1720       C  0.78888971  0.61381482  0.43702577    -0.11600
C1721       C  0.77757921  0.60777902  0.47401973    -0.01400
C1722       C  0.78453826  0.60401486  0.51138410    -0.10500
C1723       C  0.83136788  0.61120796  0.47405039     0.06000
H1724       H  0.81496089  0.62000398  0.40808356     0.07900
H1725       H  0.78386400  0.61681125  0.40775713     0.11300
H1726       H  0.77614973  0.59933710  0.54040019     0.11600
H1727       H  0.80664265  0.60193156  0.54055567     0.07900
C1728       C  0.84278993  0.61625593  0.51151515    -0.11200
C1729       C  0.85852479  0.61419578  0.51256214    -0.10500
C1730       C  0.86327438  0.60720835  0.47605546    -0.01400
C1731       C  0.85230391  0.60282038  0.43817780    -0.11600
C1732       C  0.83655101  0.60476770  0.43718345    -0.10000
H1733       H  0.83943082  0.62157651  0.54030246     0.07900
H1734       H  0.86674659  0.61772315  0.54214707     0.11600
H1735       H  0.85558704  0.59735452  0.40950490     0.11300
H1736       H  0.82800493  0.60046680  0.40799893     0.07900
C1737       C  0.69097573  0.43537933  0.29000938    -0.11200
C1738       C  0.67513170  0.42201067  0.26605140     0.05900
C1739       C  0.65922004  0.40852881  0.28846973    -0.10000
C1740       C  0.65876128  0.40912575  0.33402116    -0.11600
C1741       C  0.67450396  0.42296809  0.35855716    -0.01400
C1742       C  0.69074042  0.43571906  0.33525411    -0.10500
C1743       C  0.67465948  0.42389781  0.21828303     0.06000
H1744       H  0.64667899  0.39821461  0.27062824     0.07900
H1745       H  0.64567316  0.39934298  0.34932892     0.11300
H1746       H  0.70312660  0.44672086  0.35234109     0.11600
H1747       H  0.70338678  0.44600780  0.27356953     0.07900
C1748       C  0.67606820  0.44024011  0.20193826    -0.11200
C1749       C  0.67631043  0.44288838  0.15737293    -0.10500
C1750       C  0.67615207  0.42968278  0.12707041    -0.01400
C1751       C  0.67380616  0.41278953  0.14394823    -0.11600
C1752       C  0.67307826  0.40993667  0.18886939    -0.10000
H1753       H  0.67674542  0.45098112  0.22394791     0.07900
H1754       H  0.67642119  0.45536497  0.14739338     0.11600
H1755       H  0.67283084  0.40186811  0.12214745     0.11300
H1756       H  0.67169220  0.39704258  0.20063119     0.07900
C1757       C  0.69747962  0.48100404  0.42604723    -0.11200
C1758       C  0.68369163  0.48421927  0.40983340     0.05900
C1759       C  0.66679377  0.46895323  0.39341337    -0.10000
C1760       C  0.66379100  0.45062909  0.39300417    -0.11600
C1761       C  0.67725577  0.44702291  0.41100604    -0.01400
C1762       C  0.69442557  0.46275714  0.42651799    -0.10500
C1763       C  0.68716867  0.50361993  0.41098738     0.06000
H1764       H  0.65606046  0.47124409  0.38029696     0.07900
H1765       H  0.65092891  0.43923039  0.37916933     0.11300
H1766       H  0.70583401  0.46139451  0.43772272     0.11600
H1767       H  0.71070244  0.49267861  0.43846666     0.07900
C1768       C  0.67626161  0.50815683  0.43748840    -0.11200
C1769       C  0.68170329  0.52707089  0.44504662    -0.10500
C1770       C  0.69799628  0.54167677  0.42578731    -0.01400
C1771       C  0.70807285  0.53699118  0.39671903    -0.11600
C1772       C  0.70280259  0.51809674  0.38974161    -0.10000
H1773       H  0.66423333  0.49716484  0.45433474     0.07900
H1774       H  0.67367854  0.53030897  0.46762307     0.11600
H1775       H  0.72069014  0.54795749  0.38153771     0.11300
H1776       H  0.71136715  0.51480351  0.36916251     0.07900
C1777       C  0.73971828  0.43592036  0.55008174    -0.11200
C1778       C  0.73087226  0.42328127  0.51478270     0.05900
C1779       C  0.73630495  0.41015889  0.50490860    -0.10000
C1780       C  0.75082671  0.41030765  0.52776019    -0.11600
C1781       C  0.76017180  0.42314245  0.56289878    -0.01400
C1782       C  0.75402095  0.43578514  0.57386303    -0.10500
C1783       C  0.71645398  0.42398374  0.48734803     0.06000
H1784       H  0.72961161  0.39991178  0.47876854     0.07900
H1785       H  0.75499683  0.40069810  0.51555595     0.11300
H1786       H  0.76095157  0.44616946  0.59964489     0.11600
H1787       H  0.73612707  0.44649095  0.55850142     0.07900
C1788       C  0.70400279  0.42887452  0.50554166    -0.11200
C1789       C  0.69064628  0.42963522  0.47976339    -0.10500
C1790       C  0.68921270  0.42564649  0.43468730    -0.01400
C1791       C  0.70130427  0.42006629  0.41688410    -0.11600
C1792       C  0.71489203  0.41958312  0.44266226    -0.10000
H1793       H  0.70438281  0.43190720  0.53983188     0.07900
H1794       H  0.68138344  0.43363643  0.49515214     0.11600
H1795       H  0.70040847  0.41597611  0.38319408     0.11300
H1796       H  0.72432664  0.41589723  0.42718575     0.07900
C1797       C  0.58756437  0.33912939  0.71066062    -0.11200
C1798       C  0.57468788  0.32271676  0.73253063     0.05900
C1799       C  0.56180769  0.30672111  0.70787671    -0.10000
C1800       C  0.56128450  0.30725685  0.66280598    -0.11600
C1801       C  0.57356152  0.32383983  0.64022149    -0.01400
C1802       C  0.58685616  0.33980786  0.66525939    -0.10500
C1803       C  0.57326090  0.32253797  0.78074048     0.06000
H1804       H  0.55177832  0.29378710  0.72362990     0.07900
H1805       H  0.55075794  0.29467895  0.64543245     0.11300
H1806       H  0.59619475  0.35318681  0.65048457     0.11600
H1807       H  0.59750197  0.35178129  0.72883765     0.07900
C1808       C  0.58910039  0.32932549  0.80807409    -0.11200
C1809       C  0.58709499  0.32861209  0.85339306    -0.10500
C1810       C  0.56937917  0.32224865  0.87280003    -0.01400
C1811       C  0.55355938  0.31464086  0.84456695    -0.11600
C1812       C  0.55551215  0.31498713  0.79972640    -0.10000
H1813       H  0.60295296  0.33480273  0.79439827     0.07900
H1814       H  0.59950721  0.33346058  0.87349045     0.11600
H1815       H  0.53933870  0.30788111  0.85648259     0.11300
H1816       H  0.54296402  0.30935048  0.77970683     0.07900
C1817       C  0.61787000  0.36198321  0.54446882    -0.11200
C1818       C  0.61288058  0.37174110  0.51618638     0.05900
C1819       C  0.59426610  0.36763358  0.51563514    -0.10000
C1820       C  0.58058616  0.35326453  0.54107898    -0.11600
C1821       C  0.58525818  0.34301147  0.56942974    -0.01400
C1822       C  0.60431950  0.34791434  0.57073131    -0.10500
C1823       C  0.62679538  0.38534024  0.48542879     0.06000
H1824       H  0.59005275  0.37477181  0.49346195     0.07900
H1825       H  0.56622033  0.34950939  0.53553870     0.11300
H1826       H  0.60851570  0.34006423  0.59060994     0.11600
H1827       H  0.63219920  0.36492670  0.54541838     0.07900
C1828       C  0.63641134  0.37975873  0.45730673    -0.11200
C1829       C  0.65034422  0.39279928  0.42998087    -0.10500
C1830       C  0.65523908  0.41192666  0.43002320    -0.01400
C1831       C  0.64496115  0.41717718  0.45777410    -0.11600
C1832       C  0.63082456  0.40400592  0.48458030    -0.10000
H1833       H  0.63340582  0.36534747  0.45716168     0.07900
H1834       H  0.65812114  0.38819982  0.41033182     0.11600
H1835       H  0.64848598  0.43165281  0.46154704     0.11300
H1836       H  0.62365236  0.40864344  0.50630739     0.07900
C1837       C  0.55474633  0.20948846  0.29102063    -0.11200
C1838       C  0.57230734  0.22152210  0.27271159     0.05900
C1839       C  0.58776023  0.23280977  0.30015546    -0.10000
C1840       C  0.58575760  0.23138215  0.34535634    -0.11600
C1841       C  0.56837762  0.21824967  0.36434251    -0.01400
C1842       C  0.55268881  0.20819422  0.33592133    -0.10500
C1843       C  0.57414031  0.22189876  0.22496881     0.06000
H1844       H  0.60140320  0.24252872  0.28662662     0.07900
H1845       H  0.59796561  0.24022612  0.36568920     0.11300
H1846       H  0.53856050  0.19937721  0.34773210     0.11600
H1847       H  0.54249936  0.20111133  0.27037768     0.07900
C1848       C  0.57485299  0.20729687  0.20294217    -0.11200
C1849       C  0.57393334  0.20597436  0.15772432    -0.10500
C1850       C  0.57248984  0.21934659  0.13287036    -0.01400
C1851       C  0.57198203  0.23414556  0.15559164    -0.11600
C1852       C  0.57287187  0.23540442  0.20098391    -0.10000
H1853       H  0.57543118  0.19649421  0.22087060     0.07900
H1854       H  0.57371007  0.19402957  0.14191495     0.11600
H1855       H  0.56984128  0.24423541  0.13886539     0.11300
H1856       H  0.57174939  0.24647186  0.21748366     0.07900
C1857       C  0.58728145  0.26279384  0.48363055    -0.11200
C1858       C  0.57288381  0.26683019  0.48018791     0.05900
C1859       C  0.55858102  0.25670619  0.44895997    -0.10000
C1860       C  0.55780052  0.24177475  0.42474178    -0.11600
C1861       C  0.57066085  0.23583877  0.43287621    -0.01400
C1862       C  0.58646575  0.24787345  0.45954450    -0.10500
C1863       C  0.57280252  0.28153922  0.50888096     0.06000
H1864       H  0.54744513  0.25970417  0.44462626     0.07900
H1865       H  0.54606143  0.23366043  0.40263587     0.11300
H1866       H  0.59804684  0.24553594  0.46335489     0.11600
H1867       H  0.59912827  0.27107382  0.50535263     0.07900
C1868       C  0.57795784  0.28351566  0.55295108    -0.11200
C1869       C  0.57738672  0.29712766  0.57990078    -0.10500
C1870       C  0.57129199  0.30893438  0.56359242    -0.01400
C1871       C  0.56671555  0.30710174  0.51901758    -0.11600
C1872       C  0.56736590  0.29365287  0.49232415    -0.10000
H1873       H  0.58226749  0.27438538  0.56675316     0.07900
H1874       H  0.58189659  0.29837266  0.61318392     0.11600
H1875       H  0.56231497  0.31607980  0.50479807     0.11300
H1876       H  0.56373112  0.29286726  0.45844010     0.07900
C1877       C  0.36609582  0.32335671  0.55440113    -0.11200
C1878       C  0.34715317  0.31269204  0.56715043     0.05900
C1879       C  0.33950651  0.29336842  0.57567635    -0.10000
C1880       C  0.35040492  0.28491846  0.57032630    -0.11600
C1881       C  0.36920955  0.29566620  0.55679452    -0.01400
C1882       C  0.37695378  0.31501125  0.54958478    -0.10500
C1883       C  0.33538849  0.32163641  0.56800753     0.06000
H1884       H  0.32503599  0.28470943  0.58587925     0.07900
H1885       H  0.34402965  0.26994203  0.57590017     0.11300
H1886       H  0.39129692  0.32364071  0.53846921     0.11600
H1887       H  0.37243364  0.33808110  0.54628380     0.07900
C1888       C  0.34357058  0.34099617  0.57883755    -0.11200
C1889       C  0.33385038  0.35037281  0.57145850    -0.10500
C1890       C  0.31556907  0.34059757  0.55370987    -0.01400
C1891       C  0.30670589  0.32094348  0.54649961    -0.11600
C1892       C  0.31651597  0.31156334  0.55346429    -0.10000
H1893       H  0.35783005  0.34914007  0.59147981     0.07900
H1894       H  0.34098702  0.36547758  0.57787514     0.11600
H1895       H  0.29258356  0.31300539  0.53298378     0.11300
H1896       H  0.30968673  0.29668291  0.54471034     0.07900
C1897       C  0.37776381  0.26020398  0.31467575    -0.11200
C1898       C  0.38883573  0.27729630  0.29306707     0.05900
C1899       C  0.40051354  0.29387553  0.31772305    -0.10000
C1900       C  0.40188362  0.29317432  0.36253825    -0.11600
C1901       C  0.39132848  0.27597149  0.38368304    -0.01400
C1902       C  0.37888102  0.25959340  0.35960132    -0.10500
C1903       C  0.38922323  0.27754513  0.24500379     0.06000
H1904       H  0.40887775  0.30736219  0.30233444     0.07900
H1905       H  0.41141823  0.30603918  0.38060116     0.11300
H1906       H  0.37065090  0.24614048  0.37527098     0.11600
H1907       H  0.36882965  0.24710689  0.29681194     0.07900
C1908       C  0.40623362  0.28919984  0.22348583    -0.11200
C1909       C  0.40711184  0.28837878  0.17852334    -0.10500
C1910       C  0.39105910  0.27578804  0.15399744    -0.01400
C1911       C  0.37392475  0.26446091  0.17513681    -0.11600
C1912       C  0.37299200  0.26539127  0.22020939    -0.10000
H1913       H  0.41910731  0.29846176  0.24139788     0.07900
H1914       H  0.42053857  0.29720571  0.16305253     0.11600
H1915       H  0.36133945  0.25463029  0.15692724     0.11300
H1916       H  0.35959295  0.25643980  0.23562723     0.07900
C1917       C  0.51592727  0.29937143  0.57577897    -0.11200
C1918       C  0.51244727  0.31391549  0.58519561     0.05900
C1919       C  0.52757390  0.33180496  0.59786128    -0.10000
C1920       C  0.54589357  0.33496812  0.60102560    -0.11600
C1921       C  0.54980587  0.32084602  0.58786361    -0.01400
C1922       C  0.53419217  0.30272154  0.57700842    -0.10500
C1923       C  0.49293061  0.30999301  0.58105981     0.06000
H1924       H  0.52514303  0.34317149  0.60613045     0.07900
H1925       H  0.55718780  0.34868889  0.61245236     0.11300
H1926       H  0.53583110  0.29076616  0.57018813     0.11600
H1927       H  0.50443487  0.28534358  0.56672077     0.07900
C1928       C  0.48862672  0.31994842  0.55165268    -0.11200
C1929       C  0.46980934  0.31379998  0.54160546    -0.10500
C1930       C  0.45500453  0.29784082  0.56147243    -0.01400
C1931       C  0.45936150  0.28867783  0.59296825    -0.11600
C1932       C  0.47814474  0.29457747  0.60232098    -0.10000
H1933       H  0.49978726  0.33176101  0.53459233     0.07900
H1934       H  0.46682873  0.32112330  0.51719332     0.11600
H1935       H  0.44825701  0.27629381  0.60856941     0.11300
H1936       H  0.48115601  0.28666913  0.62504225     0.07900
C1937       C  0.34921046  0.96221230  0.43247356    -0.11200
C1938       C  0.34212930  0.97354520  0.44748735     0.05900
C1939       C  0.32483942  0.96476856  0.46938808    -0.10000
C1940       C  0.31528251  0.94543836  0.47752141    -0.11600
C1941       C  0.32285668  0.93437092  0.46457089    -0.01400
C1942       C  0.33972315  0.94283733  0.44119190    -0.10500
C1943       C  0.35338159  0.99460489  0.44469770     0.06000
H1944       H  0.31909183  0.97298660  0.48236324     0.07900
H1945       H  0.30241222  0.93935501  0.49600973     0.11300
H1946       H  0.34583211  0.93458955  0.43069132     0.11600
H1947       H  0.36233536  0.96840350  0.41499367     0.07900
C1948       C  0.37303582  0.00460777  0.45124781    -0.11200
C1949       C  0.38304322  0.02426896  0.45786344    -0.10500
C1950       C  0.37360634  0.03432629  0.45838600    -0.01400
C1951       C  0.35431206  0.02461475  0.44816323    -0.11600
C1952       C  0.34434096  0.00499931  0.44105364    -0.10000
H1953       H  0.38052559  0.99716685  0.45441191     0.07900
H1954       H  0.39795077  0.03140012  0.46550807     0.11600
H1955       H  0.34671534  0.03203316  0.44782173     0.11300
H1956       H  0.32933733  0.99786233  0.43473824     0.07900
C1957       C  0.41167262  0.07662877  0.80112588    -0.11200
C1958       C  0.39407751  0.06588678  0.78011067     0.05900
C1959       C  0.37768026  0.05716280  0.80521907    -0.10000
C1960       C  0.37875771  0.06007180  0.85000210    -0.11600
C1961       C  0.39625367  0.07163466  0.87052697    -0.01400
C1962       C  0.41274375  0.07941240  0.84592601    -0.10500
C1963       C  0.39279243  0.06527011  0.73219622     0.06000
H1964       H  0.36395720  0.04845209  0.79016285     0.07900
H1965       H  0.36585836  0.05375025  0.86837042     0.11300
H1966       H  0.42643601  0.08829867  0.86107190     0.11600
H1967       H  0.42458813  0.08372889  0.78285989     0.07900
C1968       C  0.37823619  0.06627160  0.71157929    -0.11200
C1969       C  0.37825536  0.06813441  0.66685835    -0.10500
C1970       C  0.39297369  0.06932280  0.64202386    -0.01400
C1971       C  0.40703238  0.06743242  0.66212543    -0.11600
C1972       C  0.40688304  0.06530092  0.70677382    -0.10000
H1973       H  0.36733247  0.06661437  0.73013959     0.07900
H1974       H  0.36732654  0.06969333  0.65208016     0.11600
H1975       H  0.41847239  0.06819116  0.64350742     0.11300
H1976       H  0.41807595  0.06417018  0.72149294     0.07900
C1977       C  0.47931154  0.14196688  0.43152627    -0.11200
C1978       C  0.49211900  0.15348887  0.46423506     0.05900
C1979       C  0.48625192  0.15054988  0.50750178    -0.10000
C1980       C  0.46789384  0.13652215  0.51779676    -0.11600
C1981       C  0.45497964  0.12528428  0.48499817    -0.01400
C1982       C  0.46086221  0.12806450  0.44179725    -0.10500
C1983       C  0.51123383  0.16911813  0.45307526     0.06000
H1984       H  0.49587295  0.15914003  0.53337281     0.07900
H1985       H  0.46370619  0.13470901  0.55138636     0.11300
H1986       H  0.45115809  0.11961429  0.41593680     0.11600
H1987       H  0.48341814  0.14408426  0.39791194     0.07900
C1988       C  0.52229915  0.16632102  0.42297356    -0.11200
C1989       C  0.54006960  0.18136096  0.41172430    -0.10500
C1990       C  0.54684831  0.19991796  0.42819601    -0.01400
C1991       C  0.53599752  0.20215679  0.46057144    -0.11600
C1992       C  0.51846689  0.18707493  0.47241990    -0.10000
H1993       H  0.51728408  0.15244296  0.40850670     0.07900
H1994       H  0.54841863  0.17865403  0.38902752     0.11600
H1995       H  0.54104964  0.21534762  0.47820921     0.11300
H1996       H  0.51042924  0.18955598  0.49649050     0.07900
C1997       C  0.38405953  0.15315832  0.47486550    -0.11200
C1998       C  0.38405338  0.16235260  0.51376909     0.05900
C1999       C  0.38405663  0.15415299  0.55312688    -0.10000
C2000       C  0.38495978  0.13770289  0.55355044    -0.11600
C2001       C  0.38576472  0.12901737  0.51464603    -0.01400
C2002       C  0.38490309  0.13667915  0.47531044    -0.10500
C2003       C  0.38547759  0.18109496  0.51324851     0.06000
H2004       H  0.38424839  0.16092033  0.58367126     0.07900
H2005       H  0.38564514  0.13212321  0.58440045     0.11300
H2006       H  0.38554792  0.13031450  0.44486030     0.11600
H2007       H  0.38375561  0.15890586  0.44396435     0.07900
C2008       C  0.39719126  0.19459936  0.48314933    -0.11200
C2009       C  0.39949608  0.21257154  0.48358790    -0.10500
C2010       C  0.39025756  0.21762717  0.51429320    -0.01400
C2011       C  0.37834175  0.20414465  0.54418252    -0.11600
C2012       C  0.37596815  0.18603866  0.54366592    -0.10000
H2013       H  0.40503550  0.19147399  0.45985177     0.07900
H2014       H  0.40881692  0.22265299  0.46018339     0.11600
H2015       H  0.37096165  0.20762540  0.56804949     0.11300
H2016       H  0.36670062  0.17591586  0.56704782     0.07900
C2017       C  0.98223925  0.29427258  0.45315665    -0.11200
C2018       C  0.99525817  0.31331743  0.46478272     0.05900
C2019       C  0.98836246  0.32408537  0.48416569    -0.10000
C2020       C  0.96918611  0.31609422  0.49226572    -0.11600
C2021       C  0.95627381  0.29701421  0.48182734    -0.01400
C2022       C  0.96293787  0.28615974  0.46187451    -0.10500
C2023       C  0.01606625  0.32174819  0.46056596     0.06000
H2024       H  0.99787728  0.33858152  0.49475870     0.07900
H2025       H  0.96454710  0.32475615  0.50827541     0.11300
H2026       H  0.95328270  0.27140395  0.45346335     0.11600
H2027       H  0.98699539  0.28557512  0.43790364     0.07900
C2028       C  0.02444765  0.31111351  0.46987365    -0.11200
C2029       C  0.04405118  0.31997108  0.47475214    -0.10500
C2030       C  0.05566539  0.33964879  0.47072188    -0.01400
C2031       C  0.04748427  0.35000991  0.45778440    -0.11600
C2032       C  0.02794353  0.34114710  0.45243722    -0.10000
H2033       H  0.01583132  0.29619018  0.47642970     0.07900
H2034       H  0.04997096  0.31161421  0.48463267     0.11600
H2035       H  0.05610489  0.36516294  0.45385976     0.11300
H2036       H  0.02206945  0.34970095  0.44389948     0.07900
C2037       C  0.92090909  0.30522383  0.72252924    -0.11200
C2038       C  0.92078931  0.29130050  0.74825998     0.05900
C2039       C  0.91827415  0.27475797  0.72754815    -0.10000
C2040       C  0.91571986  0.27212146  0.68278205    -0.11600
C2041       C  0.91528225  0.28577856  0.65759176    -0.01400
C2042       C  0.91800360  0.30240063  0.67780072    -0.10500
C2043       C  0.92207662  0.29334635  0.79649152     0.06000
H2044       H  0.91756453  0.26341719  0.74588407     0.07900
H2045       H  0.91353297  0.25911027  0.66804479     0.11300
H2046       H  0.91776701  0.31319583  0.65905734     0.11600
H2047       H  0.92318299  0.31832604  0.73677034     0.07900
C2048       C  0.92914810  0.28411856  0.82090763    -0.11200
C2049       C  0.92761623  0.28350925  0.86589844    -0.10500
C2050       C  0.91952898  0.29259671  0.88766780    -0.01400
C2051       C  0.91390795  0.30315340  0.86397664    -0.11600
C2052       C  0.91495514  0.30335381  0.81885205    -0.10000
H2053       H  0.93545640  0.27690708  0.80533605     0.07900
H2054       H  0.93234452  0.27552541  0.88359188     0.11600
H2055       H  0.90763304  0.31031624  0.88010704     0.11300
H2056       H  0.90919046  0.31051808  0.80165918     0.07900
C2057       C  0.67949993  0.96793379  0.52736231    -0.11200
C2058       C  0.67010214  0.97561763  0.54988750     0.05900
C2059       C  0.65229931  0.96312074  0.56738173    -0.10000
C2060       C  0.64346888  0.94362506  0.55934075    -0.11600
C2061       C  0.65242843  0.93618569  0.53453960    -0.01400
C2062       C  0.67081970  0.94839912  0.52017812    -0.10500
C2063       C  0.67792581  0.99645030  0.55084698     0.06000
H2064       H  0.64483333  0.96844760  0.58583119     0.07900
H2065       H  0.62930028  0.93442812  0.57096218     0.11300
H2066       H  0.67792706  0.94300359  0.50053424     0.11600
H2067       H  0.69307105  0.97702679  0.51283139     0.07900
C2068       C  0.69750729  0.00933791  0.55178572    -0.11200
C2069       C  0.70480557  0.02861655  0.54535893    -0.10500
C2070       C  0.69268202  0.03543776  0.53824875    -0.01400
C2071       C  0.67315268  0.02285402  0.54044802    -0.11600
C2072       C  0.66584998  0.00357825  0.54643609    -0.10000
H2073       H  0.70723543  0.00445748  0.55611117     0.07900
H2074       H  0.71993477  0.03804737  0.54417295     0.11600
H2075       H  0.66346266  0.02771996  0.53508615     0.11300
H2076       H  0.65071958  0.99416548  0.54498426     0.07900
C2077       C  0.71145494  0.06424840  0.19384739    -0.11200
C2078       C  0.70124002  0.07027037  0.21884997     0.05900
C2079       C  0.69172777  0.07789846  0.19789295    -0.10000
C2080       C  0.69332459  0.08049313  0.15332602    -0.11600
C2081       C  0.70456686  0.07565045  0.12892355    -0.01400
C2082       C  0.71318396  0.06700495  0.14928611    -0.10500
C2083       C  0.70201882  0.07037303  0.26677236     0.06000
H2084       H  0.68388721  0.08284006  0.21618276     0.07900
H2085       H  0.68647699  0.08712929  0.13831469     0.11300
H2086       H  0.72173350  0.06292303  0.13103270     0.11600
H2087       H  0.71858783  0.05793493  0.20893630     0.07900
C2088       C  0.68632506  0.06674199  0.29167220    -0.11200
C2089       C  0.68783705  0.06885312  0.33670941    -0.10500
C2090       C  0.70500584  0.07444919  0.35761848    -0.01400
C2091       C  0.72051043  0.07753627  0.33293750    -0.11600
C2092       C  0.71906366  0.07560549  0.28799096    -0.10000
H2093       H  0.67295901  0.06252524  0.27630765     0.07900
H2094       H  0.67567331  0.06640032  0.35511145     0.11600
H2095       H  0.73397000  0.08208891  0.34826113     0.11300
H2096       H  0.73153655  0.07894227  0.26979312     0.07900
C2097       C  0.79760838  0.15302906  0.53026831    -0.11200
C2098       C  0.80328873  0.16753766  0.50025062     0.05900
C2099       C  0.79067288  0.16518362  0.46698988    -0.10000
C2100       C  0.77281431  0.14885498  0.46402478    -0.11600
C2101       C  0.76707209  0.13455279  0.49443342    -0.01400
C2102       C  0.77965359  0.13673529  0.52747345    -0.10500
C2103       C  0.82197489  0.18535837  0.50440975     0.06000
H2104       H  0.79440026  0.17618119  0.44381252     0.07900
H2105       H  0.76334990  0.14759768  0.43834345     0.11300
H2106       H  0.77559458  0.12588066  0.55123122     0.11600
H2107       H  0.80705321  0.15424930  0.55593124     0.07900
C2108       C  0.82936173  0.19351559  0.54541113    -0.11200
C2109       C  0.84633292  0.21082601  0.54936049    -0.10500
C2110       C  0.85629806  0.22045558  0.51243130    -0.01400
C2111       C  0.84918355  0.21218893  0.47145791    -0.11600
C2112       C  0.83223462  0.19479048  0.46748223    -0.10000
H2113       H  0.82173014  0.18684070  0.57451115     0.07900
H2114       H  0.85139867  0.21692431  0.58139543     0.11600
H2115       H  0.85656754  0.21930786  0.44246191     0.11300
H2116       H  0.82711355  0.18877530  0.43543495     0.07900
C2117       C  0.76430255  0.32340483  0.30713544    -0.11200
C2118       C  0.77581813  0.32025361  0.27927818     0.05900
C2119       C  0.78857027  0.31589767  0.29701769    -0.10000
C2120       C  0.79016803  0.31511711  0.34180131    -0.11600
C2121       C  0.77980313  0.31975965  0.37074628    -0.01400
C2122       C  0.76616439  0.32301216  0.35221327    -0.10500
C2123       C  0.77460060  0.32113430  0.23163793     0.06000
H2124       H  0.79710920  0.31273339  0.27599875     0.07900
H2125       H  0.79941025  0.31050676  0.35301681     0.11300
H2126       H  0.75713561  0.32560773  0.37286145     0.11600
H2127       H  0.75405185  0.32639998  0.29403250     0.07900
C2128       C  0.75918923  0.30678466  0.20814320    -0.11200
C2129       C  0.75936584  0.30616452  0.16270246    -0.10500
C2130       C  0.77482637  0.32025630  0.13948588    -0.01400
C2131       C  0.78982883  0.33509361  0.16391777    -0.11600
C2132       C  0.78982341  0.33537480  0.20912626    -0.10000
H2133       H  0.74742700  0.29550048  0.22503063     0.07900
H2134       H  0.74769851  0.29412704  0.14645387     0.11600
H2135       H  0.80207042  0.34612768  0.14771811     0.11300
H2136       H  0.80194629  0.34650052  0.22661466     0.07900
C2137       C  0.77318442  0.37842118  0.54823330    -0.11200
C2138       C  0.78779782  0.38391342  0.51844189     0.05900
C2139       C  0.80100983  0.40315470  0.51393603    -0.10000
C2140       C  0.79918377  0.41677894  0.53737580    -0.11600
C2141       C  0.78338009  0.41151521  0.56404988    -0.01400
C2142       C  0.77109212  0.39200210  0.57097380    -0.10500
C2143       C  0.78920114  0.36941665  0.49267756     0.06000
H2144       H  0.81282157  0.40763915  0.49237812     0.07900
H2145       H  0.81012228  0.43133186  0.53341480     0.11300
H2146       H  0.75909738  0.38726437  0.59207629     0.11600
H2147       H  0.76296363  0.36358036  0.55275540     0.07900
C2148       C  0.78890881  0.35449528  0.51368675    -0.11200
C2149       C  0.78791596  0.33952594  0.48991364    -0.10500
C2150       C  0.78645790  0.33857441  0.44418313    -0.01400
C2151       C  0.78867974  0.35460646  0.42315559    -0.11600
C2152       C  0.78982567  0.36977895  0.44726727    -0.10000
H2153       H  0.78888649  0.35414798  0.54867496     0.07900
H2154       H  0.78686279  0.32787579  0.50759734     0.11600
H2155       H  0.78909671  0.35544677  0.38836458     0.11300
H2156       H  0.79048487  0.38146584  0.43044486     0.07900
C2157       C  0.85534973  0.30805602  0.43826869    -0.11200
C2158       C  0.84508199  0.31080776  0.47082096     0.05900
C2159       C  0.84848949  0.30876365  0.51419247    -0.10000
C2160       C  0.86125333  0.30322911  0.52478022    -0.11600
C2161       C  0.87078745  0.29945170  0.49220366    -0.01400
C2162       C  0.86804085  0.30230699  0.44886347    -0.10500
C2163       C  0.82949955  0.31384470  0.45962046     0.06000
H2164       H  0.84086748  0.31096777  0.53988027     0.07900
H2165       H  0.86316199  0.30127489  0.55848941     0.11300
H2166       H  0.87524764  0.29954474  0.42314606     0.11600
H2167       H  0.85286592  0.30944702  0.40457207     0.07900
C2168       C  0.83205013  0.32786593  0.43093627    -0.11200
C2169       C  0.81687636  0.32996968  0.41982211    -0.10500
C2170       C  0.79844697  0.31725696  0.43460948    -0.01400
C2171       C  0.79647112  0.30400736  0.46556777    -0.11600
C2172       C  0.81169441  0.30229548  0.47757751    -0.10000
H2173       H  0.84580297  0.33729941  0.41752717     0.07900
H2174       H  0.81935746  0.34119730  0.39835984     0.11600
H2175       H  0.78336450  0.29516889  0.48194595     0.11300
H2176       H  0.80945104  0.29165378  0.50060644     0.07900
C2177       C  0.65401719  0.21038056  0.69435278    -0.11200
C2178       C  0.67059188  0.21633119  0.71845483     0.05900
C2179       C  0.68716831  0.22124302  0.69587917    -0.10000
C2180       C  0.68712549  0.22005893  0.65060522    -0.11600
C2181       C  0.67061730  0.21433089  0.62595384    -0.01400
C2182       C  0.65394586  0.20913923  0.64907117    -0.10500
C2183       C  0.67030387  0.21611086  0.76685700     0.06000
H2184       H  0.70008767  0.22534646  0.71326887     0.07900
H2185       H  0.70008151  0.22336313  0.63468680     0.11300
H2186       H  0.64052847  0.20337288  0.63265401     0.11600
H2187       H  0.64092083  0.20633514  0.71057184     0.07900
C2188       C  0.65505859  0.20129445  0.78835430    -0.11200
C2189       C  0.65521831  0.20016097  0.83333183    -0.10500
C2190       C  0.67059424  0.21381047  0.85886461    -0.01400
C2191       C  0.68578081  0.22886881  0.83720026    -0.11600
C2192       C  0.68556126  0.23002368  0.79192750    -0.10000
H2193       H  0.64323124  0.19007921  0.77029075     0.07900
H2194       H  0.64343993  0.18814547  0.84842110     0.11600
H2195       H  0.69825023  0.23937362  0.85459391     0.11300
H2196       H  0.69753142  0.24167780  0.77643866     0.07900
C2197       C  0.60692381  0.20612801  0.43536146    -0.11200
C2198       C  0.60733462  0.20647121  0.48081732     0.05900
C2199       C  0.59332598  0.20759787  0.50339071    -0.10000
C2200       C  0.57992132  0.20961197  0.48128974    -0.11600
C2201       C  0.58036553  0.21122891  0.43573720    -0.01400
C2202       C  0.59345897  0.20827934  0.41294553    -0.10500
C2203       C  0.62285595  0.20684041  0.50525225     0.06000
H2204       H  0.59305747  0.20743500  0.53841355     0.07900
H2205       H  0.56980499  0.21116633  0.50027502     0.11300
H2206       H  0.59370875  0.20792523  0.37805425     0.11600
H2207       H  0.61743647  0.20487975  0.41723734     0.07900
C2208       C  0.62818484  0.19354532  0.49671412    -0.11200
C2209       C  0.64293811  0.19417981  0.52015170    -0.10500
C2210       C  0.65264606  0.20804887  0.55328192    -0.01400
C2211       C  0.64756407  0.22178216  0.56003456    -0.11600
C2212       C  0.63268007  0.22094811  0.53713976    -0.10000
H2213       H  0.62101082  0.18273794  0.47167383     0.07900
H2214       H  0.64713349  0.18424451  0.51065179     0.11600
H2215       H  0.65531946  0.23335804  0.58310990     0.11300
H2216       H  0.62914336  0.23168619  0.54355529     0.07900
C2217       C  0.69292641  0.18012088  0.56292875    -0.11200
C2218       C  0.67732455  0.16186371  0.56684588     0.05900
C2219       C  0.65965140  0.15942013  0.57587138    -0.10000
C2220       C  0.65762335  0.17517706  0.58019545    -0.11600
C2221       C  0.67290378  0.19355445  0.57220043    -0.01400
C2222       C  0.69080752  0.19573612  0.56575442    -0.10500
C2223       C  0.67975757  0.14560222  0.55965027     0.06000
H2224       H  0.64751475  0.14537254  0.57987548     0.07900
H2225       H  0.64394871  0.17298012  0.58841571     0.11300
H2226       H  0.70338267  0.20954986  0.56311822     0.11600
H2227       H  0.70675802  0.18227676  0.55671694     0.07900
C2228       C  0.67080552  0.13317418  0.52433063    -0.11200
C2229       C  0.67585071  0.11999464  0.51233074    -0.10500
C2230       C  0.68967659  0.11888976  0.53598240    -0.01400
C2231       C  0.69779230  0.13059244  0.57284753    -0.11600
C2232       C  0.69299635  0.14399098  0.58434328    -0.10000
H2233       H  0.66073623  0.13441674  0.50462657     0.07900
H2234       H  0.66942538  0.11112770  0.48371467     0.11600
H2235       H  0.70855379  0.13007411  0.59143530     0.11300
H2236       H  0.70011439  0.15359004  0.61153618     0.07900
C2237       C  0.70386533  0.23953395  0.48406605    -0.11200
C2238       C  0.71534742  0.25758310  0.50278122     0.05900
C2239       C  0.71201401  0.26077182  0.54597578    -0.10000
C2240       C  0.69774185  0.24618462  0.57001363    -0.11600
C2241       C  0.68663173  0.22782072  0.55180647    -0.01400
C2242       C  0.68965857  0.22502283  0.50792299    -0.10500
C2243       C  0.73064890  0.27305000  0.47732866     0.06000
H2244       H  0.72057157  0.27455648  0.56146593     0.07900
H2245       H  0.69539176  0.24950144  0.60254579     0.11300
H2246       H  0.68109256  0.21130574  0.49213571     0.11600
H2247       H  0.70563941  0.23663805  0.45064205     0.07900
C2248       C  0.74139110  0.26945365  0.44760269    -0.11200
C2249       C  0.75677793  0.28436718  0.42676114    -0.10500
C2250       C  0.76249008  0.30334316  0.43689678    -0.01400
C2251       C  0.75007150  0.30650502  0.46220003    -0.11600
C2252       C  0.73469338  0.29167078  0.48271752    -0.10000
H2253       H  0.73845900  0.25521374  0.44179525     0.07900
H2254       H  0.76521092  0.28119131  0.40543077     0.11600
H2255       H  0.75227066  0.32048635  0.46729451     0.11300
H2256       H  0.72600419  0.29484718  0.50311190     0.07900
loop_ 
_geom_bond_atom_site_label_1 
_geom_bond_atom_site_label_2 
_geom_bond_distance 
_geom_bond_site_symmetry_2 
_ccdc_geom_bond_type 
C1         C2181   1.557       .  S
C1         C2210   1.552       .  S
C1         C2221   1.547       .  S
C1         C2241   1.551       .  S
C2         C2121   1.562       .  S
C2         C2150   1.553       .  S
C2         C2170   1.559       .  S
C2         C2250   1.559       .  S
In3           O5   2.235       .  S
In3           O6   2.240       .  S
In3          O14   2.246       .  S
In3           O8   2.258       .  S
In3          O10   2.255       .  S
In3          O11   2.234       .  S
In3          O12   2.232       .  S
In3          O15   2.244       .  S
C4           O10   1.264       .  A
C4           O12   1.260       .  A
C4         C2101   1.477       .  S
O5           C13   1.261       .  A
O6           C13   1.260       .  A
C7           O14   1.258       .  A
C7            O8   1.260       .  A
C7         C2070   1.478       .  S
C9           O11   1.259       .  A
C9           O15   1.261       .  A
C9         C2230   1.471       .  S
C13        C2090   1.472       .  S
In16         O18   2.243       .  S
In16         O19   2.236       .  S
In16         O27   2.242       .  S
In16         O21   2.287       .  S
In16         O23   2.267       .  S
In16         O24   2.230       .  S
In16         O25   2.238       .  S
In16         O28   2.270       .  S
C17          O23   1.263       .  A
C17          O25   1.258       .  A
C17        C2110   1.479       .  S
O18          C26   1.263       .  A
O19          C26   1.261       .  A
C20          O27   1.257       .  A
C20          O21   1.261       .  A
C20        C2021   1.484       .  S
C22          O24   1.258       .  A
C22          O28   1.263       .  A
C22        C2161   1.480       .  S
C26        C2041   1.475       .  S
In29         O31   2.238       .  S
In29         O32   2.224       .  S
In29         O40   2.249       .  S
In29         O34   2.259       .  S
In29         O36   2.265       .  S
In29         O37   2.232       .  S
In29         O38   2.240       .  S
In29         O41   2.250       .  S
C30          O36   1.264       .  A
C30          O38   1.257       .  A
C30        C2001   1.480       .  S
O31          C39   1.263       .  A
O32          C39   1.261       .  A
C33          O40   1.259       .  A
C33          O34   1.262       .  A
C33        C1950   1.481       .  S
C35          O37   1.260       .  A
C35          O41   1.263       .  A
C35        C1981   1.475       .  S
C39        C1970   1.469       .  S
In42         O44   2.244       .  S
In42         O45   2.237       .  S
In42         O53   2.236       .  S
In42         O47   2.283       .  S
In42         O49   2.269       .  S
In42         O50   2.244       .  S
In42         O51   2.225       .  S
In42         O54   2.266       .  S
C43          O49   1.267       .  A
C43          O51   1.261       .  A
C43        C2010   1.482       .  S
O44          C52   1.260       .  A
O45          C52   1.260       .  A
C46          O53   1.257       .  A
C46          O47   1.261       .  A
C46        C1881   1.484       .  S
C48          O50   1.259       .  A
C48          O54   1.264       .  A
C48        C1930   1.481       .  S
C52        C1901   1.470       .  S
C55        C1841   1.564       .  S
C55        C1861   1.559       .  S
C55        C1990   1.560       .  S
C55        C2201   1.554       .  S
C56        C1801   1.559       .  S
C56        C1821   1.558       .  S
C56        C1870   1.556       .  S
C56        C1921   1.559       .  S
C57        C1741   1.563       .  S
C57        C1761   1.554       .  S
C57        C1790   1.554       .  S
C57        C1830   1.557       .  S
In58         O60   2.257       .  S
In58         O61   2.239       .  S
In58         O69   2.241       .  S
In58         O63   2.266       .  S
In58         O65   2.273       .  S
In58         O66   2.234       .  S
In58         O67   2.229       .  S
In58         O70   2.255       .  S
C59          O65   1.264       .  A
C59          O67   1.259       .  A
C59        C1721   1.480       .  S
O60          C68   1.262       .  A
O61          C68   1.259       .  A
C62          O69   1.257       .  A
C62          O63   1.260       .  A
C62        C1690   1.479       .  S
C64          O66   1.260       .  A
C64          O70   1.263       .  A
C64        C1770   1.476       .  S
C68        C1701   1.476       .  S
In71         O73   2.237       .  S
In71         O74   2.235       .  S
In71         O82   2.249       .  S
In71         O76   2.280       .  S
In71         O78   2.274       .  S
In71         O79   2.234       .  S
In71         O80   2.228       .  S
In71         O83   2.255       .  S
C72          O78   1.265       .  A
C72          O80   1.257       .  A
C72        C1730   1.480       .  S
O73          C81   1.263       .  A
O74          C81   1.262       .  A
C75          O82   1.259       .  A
C75          O76   1.262       .  A
C75        C1621   1.488       .  S
C77          O79   1.259       .  A
C77          O83   1.262       .  A
C77        C1661   1.476       .  S
C81        C1641   1.474       .  S
C84        C1601   1.558       .  S
C84        C1670   1.558       .  S
C84        C1781   1.562       .  S
C84        C2141   1.556       .  S
C85        C1550   1.555       .  S
C85        C1561   1.554       .  S
C85        C1581   1.560       .  S
C85        C2190   1.554       .  S
C86        C1501   1.557       .  S
C86        C1530   1.558       .  S
C86        C1590   1.567       .  S
C86        C2130   1.558       .  S
In87         O89   2.262   1_554  S
In87         O90   2.226       .  S
In87         O98   2.248   1_554  S
In87         O92   2.262   1_554  S
In87         O94   2.275   1_554  S
In87         O95   2.232       .  S
In87         O96   2.237       .  S
In87         O99   2.242       .  S
C88          O94   1.264   1_554  A
C88          O96   1.257       .  A
C88        C1481   1.483       .  S
O89          C97   1.264       .  A
O90          C97   1.261   1_554  A
C91          O98   1.259       .  A
C91          O92   1.262       .  A
C91        C1461   1.481       .  S
C93          O95   1.261       .  A
C93          O99   1.262       .  A
C93        C2081   1.472       .  S
C97        C1570   1.479       .  S
In100       O102   2.247       .  S
In100       O103   2.230       .  S
In100       O111   2.261       .  S
In100       O105   2.252       .  S
In100       O107   2.277       .  S
In100       O108   2.244   1_554  S
In100       O109   2.235   1_554  S
In100       O112   2.237   1_554  S
C101        O107   1.262       .  A
C101        O109   1.257   1_554  A
C101       C1490   1.481       .  S
O102        C110   1.264       .  A
O103        C110   1.260       .  A
C104        O111   1.259       .  A
C104        O105   1.258       .  A
C104       C1441   1.480       .  S
C106        O108   1.262       .  A
C106        O112   1.262       .  A
C106       C2050   1.473       .  S
C110       C1521   1.475       .  S
In113       O115   2.277   1_554  S
In113       O116   2.233       .  S
In113       O124   2.241       .  S
In113       O118   2.284   1_554  S
In113       O120   2.281   1_554  S
In113       O121   2.224       .  S
In113       O122   2.237       .  S
In113       O125   2.245       .  S
C114        O120   1.264   1_554  A
C114        O122   1.255       .  A
C114       C1430   1.482       .  S
O115        C123   1.262   1_556  A
O116        C123   1.257       .  A
C117        O124   1.258   1_556  A
C117        O118   1.263       .  A
C117       C1381   1.487       .  S
C119        O121   1.262       .  A
C119        O125   1.265       .  A
C119       C1910   1.474       .  S
C123       C1401   1.480   1_554  S
In126       O128   2.257   1_556  S
In126       O129   2.220       .  S
In126       O137   2.240   1_556  S
In126       O131   2.262   1_556  S
In126       O133   2.274   1_556  S
In126       O134   2.230       .  S
In126       O135   2.233       .  S
In126       O138   2.245       .  S
C127        O133   1.263       .  A
C127        O135   1.258   1_554  A
C127       C1421   1.481       .  S
O128        C136   1.264       .  A
O129        C136   1.259   1_556  A
C130        O137   1.258       .  A
C130        O131   1.261       .  A
C130       C1341   1.477       .  S
C132        O134   1.259       .  A
C132        O138   1.262       .  A
C132       C1961   1.471       .  S
C136       C1370   1.475       .  S
C139       C1321   1.556       .  S
C139       C1361   1.553       .  S
C139       C1541   1.556       .  S
C139       C1850   1.555       .  S
C140       C1301   1.558       .  S
C140       C1330   1.561       .  S
C140       C1410   1.556       .  S
C140       C1810   1.566       .  S
C141       C1261   1.558       .  S
C141       C1290   1.558       .  S
C141       C1310   1.558       .  S
C141       C1750   1.566       .  S
In142       O144   2.255   1_556  S
In142       O145   2.229       .  S
In142       O153   2.260       .  S
In142       O147   2.262       .  S
In142       O149   2.278       .  S
In142       O150   2.243       .  S
In142       O151   2.235       .  S
In142       O154   2.233       .  S
C143        O149   1.265       .  A
C143        O151   1.257       .  A
C143       C1241   1.482       .  S
O144        C152   1.265   1_554  A
O145        C152   1.261       .  A
C146        O153   1.259       .  A
C146        O147   1.261       .  A
C146       C1221   1.485   1_556  S
C148        O150   1.261       .  A
C148        O154   1.261       .  A
C148       C1710   1.473       .  S
C152       C1270   1.478   1_556  S
In155       O157   2.248       .  S
In155       O158   2.228       .  S
In155       O166   2.255       .  S
In155       O160   2.244       .  S
In155       O162   2.270       .  S
In155       O163   2.253   1_556  S
In155       O164   2.218   1_556  S
In155       O167   2.217   1_556  S
C156        O162   1.265       .  A
C156        O164   1.258   1_556  A
C156       C1250   1.477       .  S
O157        C165   1.263       .  A
O158        C165   1.260       .  A
C159        O166   1.259       .  A
C159        O160   1.257       .  A
C159       C1190   1.476       .  S
C161        O163   1.263       .  A
C161        O167   1.260       .  A
C161       C1650   1.471       .  S
C165       C1201   1.474       .  S
C168       C1210   1.549       .  S
C168       C1281   1.554       .  S
C168       C1510   1.556       .  S
C168       C1610   1.557       .  S
In169       O171   2.244   1_554  S
In169       O172   2.231   1_554  S
In169       O180   2.235       .  S
In169       O174   2.274       .  S
In169       O176   2.275       .  S
In169       O177   2.238       .  S
In169       O178   2.232   1_554  S
In169       O181   2.267       .  S
C170        O176   1.267       .  A
C170        O178   1.260   1_554  A
C170       C1161   1.485   1_554  S
O171        C179   1.261       .  A
O172        C179   1.261       .  A
C173        O180   1.257       .  A
C173        O174   1.263       .  A
C173       C1450   1.482       .  S
C175        O177   1.260       .  A
C175        O181   1.264       .  A
C175       C1141   1.480       .  S
C179       C1121   1.470       .  S
In182       O184   2.242       .  S
In182       O185   2.244       .  S
In182       O193   2.262   1_554  S
In182       O187   2.276   1_554  S
In182       O189   2.271   1_554  S
In182       O190   2.254       .  S
In182       O191   2.240       .  S
In182       O194   2.259   1_554  S
C183        O189   1.265   1_554  A
C183        O191   1.259       .  A
C183       C1170   1.483       .  S
O184        C192   1.262       .  A
O185        C192   1.262       .  A
C186        O193   1.259       .  A
C186        O187   1.260       .  A
C186       C1390   1.488       .  S
C188        O190   1.262   1_556  A
C188        O194   1.262       .  A
C188       C1101   1.483       .  S
C192       C1081   1.476       .  S
C195       C1021   1.563       .  S
C195       C1050   1.558       .  S
C195       C1061   1.555       .  S
C195       C1150   1.554       .  S
C196        C981   1.564       .  S
C196       C1010   1.563       .  S
C196       C1070   1.563       .  S
C196       C1110   1.566       .  S
In197       O199   2.236       .  S
In197       O200   2.239       .  S
In197       O208   2.244   1_554  S
In197       O202   2.261   1_554  S
In197       O204   2.260   1_554  S
In197       O205   2.237       .  S
In197       O206   2.232       .  S
In197       O209   2.262   1_554  S
C198        O204   1.264   1_554  A
C198        O206   1.259       .  A
C198        C961   1.478       .  S
O199        C207   1.260       .  A
O200        C207   1.260       .  A
C201        O208   1.259       .  A
C201        O202   1.260       .  A
C201       C1181   1.479       .  S
C203        O205   1.260   1_556  A
C203        O209   1.264       .  A
C203        C941   1.481       .  S
C207        C921   1.471       .  S
In210       O212   2.219       .  S
In210       O213   2.258       .  S
In210       O221   2.257   1_556  S
In210       O215   2.245   1_556  S
In210       O217   2.259   1_556  S
In210       O218   2.233       .  S
In210       O219   2.222       .  S
In210       O222   2.260   1_556  S
C211        O217   1.265       .  A
C211        O219   1.260   1_554  A
C211        C970   1.476       .  S
O212        C220   1.259       .  A
O213        C220   1.263       .  A
C214        O221   1.260       .  A
C214        O215   1.259       .  A
C214       C1350   1.478       .  S
C216        O218   1.261   1_554  A
C216        O222   1.262       .  A
C216        C901   1.477       .  S
C220        C881   1.473       .  S
C223        C821   1.561       .  S
C223        C841   1.559       .  S
C223        C861   1.566       .  S
C223        C910   1.557       .  S
C224        C801   1.559       .  S
C224        C870   1.560       .  S
C224        C950   1.556       .  S
C224       C1041   1.562       .  S
C225        C741   1.562       .  S
C225        C770   1.550       .  S
C225        C781   1.557       .  S
C225        C850   1.558       .  S
In226       O228   2.253   1_556  S
In226       O229   2.241   1_556  S
In226       O237   2.237       .  S
In226       O231   2.278       .  S
In226       O233   2.279       .  S
In226       O234   2.261       .  S
In226       O235   2.238   1_556  S
In226       O238   2.229       .  S
C227        O233   1.266       .  A
C227        O235   1.260   1_556  A
C227        C730   1.487       .  S
O228        C236   1.262       .  A
O229        C236   1.261       .  A
C230        O237   1.257       .  A
C230        O231   1.264       .  A
C230       C1470   1.484       .  S
C232        O234   1.263       .  A
C232        O238   1.260       .  A
C232        C761   1.476       .  S
C236        C701   1.478       .  S
In239       O241   2.243       .  S
In239       O242   2.228       .  S
In239       O250   2.259       .  S
In239       O244   2.273   1_556  S
In239       O246   2.278   1_556  S
In239       O247   2.221       .  S
In239       O248   2.252       .  S
In239       O251   2.274   1_556  S
C240        O246   1.263   1_556  A
C240        O248   1.258       .  A
C240        C721   1.487       .  S
O241        C249   1.263       .  A
O242        C249   1.260       .  A
C243        O250   1.260   1_554  A
C243        O244   1.262       .  A
C243       C1230   1.489       .  S
C245        O247   1.258       .  A
C245        O251   1.266   1_556  A
C245        C681   1.480   1_556  S
C249        C661   1.469       .  S
C252        C641   1.566       .  S
C252        C690   1.564       .  S
C252        C790   1.561       .  S
C252       C1001   1.561       .  S
In253       O255   2.262       .  S
In253       O256   2.234       .  S
In253       O264   2.248       .  S
In253       O258   2.258       .  S
In253       O260   2.270       .  S
In253       O261   2.232       .  S
In253       O262   2.221       .  S
In253       O265   2.242       .  S
C254        O260   1.264       .  A
C254        O262   1.257       .  A
C254        C621   1.477       .  S
O255        C263   1.264       .  A
O256        C263   1.261       .  A
C257        O264   1.259       .  A
C257        O258   1.260       .  A
C257       C1681   1.478       .  S
C259        O261   1.259       .  A
C259        O265   1.261       .  A
C259        C670   1.470       .  S
C263        C610   1.481       .  S
In266       O268   2.263       .  S
In266       O269   2.237       .  S
In266       O277   2.239       .  S
In266       O271   2.256       .  S
In266       O273   2.265       .  S
In266       O274   2.244       .  S
In266       O275   2.210       .  S
In266       O278   2.250       .  S
C267        O273   1.265       .  A
C267        O275   1.258       .  A
C267        C630   1.474       .  S
O268        C276   1.263       .  A
O269        C276   1.261       .  A
C270        O277   1.259       .  A
C270        O271   1.261       .  A
C270       C2061   1.474       .  S
C272        O274   1.262       .  A
C272        O278   1.260       .  A
C272        C710   1.478       .  S
C276        C581   1.479       .  S
C279        C541   1.557       .  S
C279        C570   1.565       .  S
C279        C601   1.560       .  S
C279        C650   1.563       .  S
C280        C521   1.567       .  S
C280        C561   1.563       .  S
C280        C590   1.558       .  S
C280        C750   1.566       .  S
C281        C461   1.553       .  S
C281        C490   1.556       .  S
C281        C501   1.557       .  S
C281        C810   1.558       .  S
C282        C450   1.557       .  S
C282        C510   1.556       .  S
C282        C530   1.560       .  S
C282        C830   1.558       .  S
In283       O285   2.264       .  S
In283       O286   2.234       .  S
In283       O294   2.264       .  S
In283       O288   2.244       .  S
In283       O290   2.258       .  S
In283       O291   2.257       .  S
In283       O292   2.240       .  S
In283       O295   2.237       .  S
C284        O290   1.262       .  A
C284        O292   1.259       .  A
C284        C430   1.479       .  S
O285        C293   1.265       .  A
O286        C293   1.261       .  A
C287        O294   1.261       .  A
C287        O288   1.260       .  A
C287       C1941   1.480       .  S
C289        O291   1.261       .  A
C289        O295   1.259       .  A
C289        C890   1.475       .  S
C293        C441   1.482       .  S
In296       O298   2.280       .  S
In296       O299   2.224       .  S
In296       O307   2.259       .  S
In296       O301   2.260       .  S
In296       O303   2.278       .  S
In296       O304   2.228       .  S
In296       O305   2.235       .  S
In296       O308   2.238       .  S
C297        O303   1.265       .  A
C297        O305   1.256       .  A
C297        C421   1.479       .  S
O298        C306   1.266       .  A
O299        C306   1.257       .  A
C300        O307   1.262       .  A
C300        O301   1.263       .  A
C300       C1630   1.486       .  S
C302        O304   1.260       .  A
C302        O308   1.261       .  A
C302        C930   1.468       .  S
C306        C481   1.479       .  S
In309       O311   2.250       .  S
In309       O312   2.240       .  S
In309       O320   2.251       .  S
In309       O314   2.265       .  S
In309       O316   2.272       .  S
In309       O317   2.240       .  S
In309       O318   2.225       .  S
In309       O321   2.235       .  S
C310        O316   1.263       .  A
C310        O318   1.256       .  A
C310        C410   1.478       .  S
O311        C319   1.263       .  A
O312        C319   1.260       .  A
C313        O320   1.260       .  A
C313        O314   1.262       .  A
C313       C2030   1.483       .  S
C315        O317   1.263       .  A
C315        O321   1.261       .  A
C315       C1130   1.471       .  S
C319        C381   1.476       .  S
In322       O324   2.263       .  S
In322       O325   2.241       .  S
In322       O333   2.257       .  S
In322       O327   2.269       .  S
In322       O329   2.273       .  S
In322       O330   2.258       .  S
In322       O331   2.219       .  S
In322       O334   2.236       .  S
C323        O329   1.266       .  A
C323        O331   1.259       .  A
C323        C401   1.480       .  S
O324        C332   1.263       .  A
O325        C332   1.260       .  A
C326        O333   1.260       .  A
C326        O327   1.260       .  A
C326       C1890   1.485       .  S
C328        O330   1.261       .  A
C328        O334   1.259       .  A
C328       C1090   1.476       .  S
C332        C370   1.481       .  S
C335        C350   1.567       .  S
C335        C361   1.560       .  S
C335        C550   1.561       .  S
C335        C990   1.567       .  S
C336        C341   1.564       .  S
C336        C390   1.552       .  S
C336        C470   1.557       .  S
C336       C1030   1.566       .  S
C337        C338   1.400       .  A
C337        C342   1.402       .  A
C337        H347   1.083       .  S
C338        C343   1.476       .  S
C338        C339   1.396       .  A
C339        C340   1.397       .  A
C339        H344   1.084       .  S
C340        C341   1.420       .  A
C340        H345   1.078       .  S
C341        C342   1.416       .  A
C342        H346   1.083       .  S
C343        C348   1.400       .  A
C343        C352   1.395       .  A
C348        C349   1.403       .  A
C348        H353   1.083       .  S
C349        C350   1.418       .  A
C349        H354   1.083       .  S
C350        C351   1.421       .  A
C351        C352   1.395       .  A
C351        H355   1.077       .  S
C352        H356   1.084       .  S
C357        C358   1.404       .  A
C357        C362   1.398       .  A
C357        H367   1.083       .  S
C358        C363   1.491       .  S
C358        C359   1.403       .  A
C359        C360   1.399       .  A
C359        H364   1.083       .  S
C360        C361   1.417       .  A
C360        H365   1.079       .  S
C361        C362   1.415       .  A
C362        H366   1.083       .  S
C363        C368   1.406       .  A
C363        C372   1.408       .  A
C368        C369   1.399       .  A
C368        H373   1.082       .  S
C369        C370   1.405       .  A
C369        H374   1.083       .  S
C370        C371   1.404       .  A
C371        C372   1.401       .  A
C371        H375   1.083       .  S
C372        H376   1.083       .  S
C377        C378   1.409       .  A
C377        C382   1.398       .  A
C377        H387   1.082       .  S
C378        C383   1.496       .  S
C378        C379   1.410       .  A
C379        C380   1.398       .  A
C379        H384   1.082       .  S
C380        C381   1.403       .  A
C380        H385   1.083       .  S
C381        C382   1.402       .  A
C382        H386   1.083       .  S
C383        C388   1.408       .  A
C383        C392   1.404       .  A
C388        C389   1.400       .  A
C388        H393   1.082       .  S
C389        C390   1.411       .  A
C389        H394   1.080       .  S
C390        C391   1.414       .  A
C391        C392   1.394       .  A
C391        H395   1.083       .  S
C392        H396   1.082       .  S
C397        C398   1.411       .  A
C397        C402   1.403       .  A
C397        H407   1.083       .  S
C398        C403   1.491       .  S
C398        C399   1.405       .  A
C399        C400   1.394       .  A
C399        H404   1.083       .  S
C400        C401   1.405       .  A
C400        H405   1.083       .  S
C401        C402   1.403       .  A
C402        H406   1.083       .  S
C403        C408   1.411       .  A
C403        C412   1.405       .  A
C408        C409   1.401       .  A
C408        H413   1.082       .  S
C409        C410   1.403       .  A
C409        H414   1.083       .  S
C410        C411   1.405       .  A
C411        C412   1.395       .  A
C411        H415   1.083       .  S
C412        H416   1.083       .  S
C417        C418   1.407       .  A
C417        C422   1.398       .  A
C417        H427   1.082       .  S
C418        C423   1.495       .  S
C418        C419   1.411       .  A
C419        C420   1.402       .  A
C419        H424   1.082       .  S
C420        C421   1.401       .  A
C420        H425   1.083       .  S
C421        C422   1.405       .  A
C422        H426   1.083       .  S
C423        C428   1.408       .  A
C423        C432   1.410       .  A
C428        C429   1.398       .  A
C428        H433   1.082       .  S
C429        C430   1.404       .  A
C429        H434   1.083       .  S
C430        C431   1.403       .  A
C431        C432   1.401       .  A
C431        H435   1.083       .  S
C432        H436   1.082       .  S
C437        C438   1.406       .  A
C437        C442   1.397       .  A
C437        H447   1.082       .  S
C438        C443   1.493       .  S
C438        C439   1.409       .  A
C439        C440   1.404       .  A
C439        H444   1.083       .  S
C440        C441   1.405       .  A
C440        H445   1.083       .  S
C441        C442   1.404       .  A
C442        H446   1.083       .  S
C443        C448   1.405       .  A
C443        C452   1.404       .  A
C448        C449   1.397       .  A
C448        H453   1.082       .  S
C449        C450   1.412       .  A
C449        H454   1.082       .  S
C450        C451   1.418       .  A
C451        C452   1.401       .  A
C451        H455   1.081       .  S
C452        H456   1.083       .  S
C457        C458   1.407       .  A
C457        C462   1.404       .  A
C457        H467   1.082       .  S
C458        C463   1.493       .  S
C458        C459   1.404       .  A
C459        C460   1.394       .  A
C459        H464   1.083       .  S
C460        C461   1.412       .  A
C460        H465   1.083       .  S
C461        C462   1.413       .  A
C462        H466   1.080       .  S
C463        C468   1.404       .  A
C463        C472   1.407       .  A
C468        C469   1.401       .  A
C468        H473   1.082       .  S
C469        C470   1.416       .  A
C469        H474   1.080       .  S
C470        C471   1.410       .  A
C471        C472   1.398       .  A
C471        H475   1.083       .  S
C472        H476   1.082       .  S
C477        C478   1.409       .  A
C477        C482   1.403       .  A
C477        H487   1.083       .  S
C478        C483   1.489       .  S
C478        C479   1.404       .  A
C479        C480   1.396       .  A
C479        H484   1.083       .  S
C480        C481   1.405       .  A
C480        H485   1.083       .  S
C481        C482   1.403       .  A
C482        H486   1.083       .  S
C483        C488   1.401       .  A
C483        C492   1.404       .  A
C488        C489   1.398       .  A
C488        H493   1.083       .  S
C489        C490   1.416       .  A
C489        H494   1.080       .  S
C490        C491   1.414       .  A
C491        C492   1.399       .  A
C491        H495   1.082       .  S
C492        H496   1.083       .  S
C497        C498   1.397       .  A
C497        C502   1.395       .  A
C497        H507   1.083       .  S
C498        C503   1.483       .  S
C498        C499   1.404       .  A
C499        C500   1.403       .  A
C499        H504   1.083       .  S
C500        C501   1.413       .  A
C500        H505   1.082       .  S
C501        C502   1.419       .  A
C502        H506   1.081       .  S
C503        C508   1.398       .  A
C503        C512   1.404       .  A
C508        C509   1.397       .  A
C508        H513   1.083       .  S
C509        C510   1.418       .  A
C509        H514   1.081       .  S
C510        C511   1.413       .  A
C511        C512   1.402       .  A
C511        H515   1.082       .  S
C512        H516   1.083       .  S
C517        C518   1.405       .  A
C517        C522   1.406       .  A
C517        H527   1.083       .  S
C518        C523   1.502       .  S
C518        C519   1.408       .  A
C519        C520   1.402       .  A
C519        H524   1.083       .  S
C520        C521   1.411       .  A
C520        H525   1.083       .  S
C521        C522   1.419       .  A
C522        H526   1.079       .  S
C523        C528   1.409       .  A
C523        C532   1.405       .  A
C528        C529   1.408       .  A
C528        H533   1.082       .  S
C529        C530   1.415       .  A
C529        H534   1.080       .  S
C530        C531   1.412       .  A
C531        C532   1.398       .  A
C531        H535   1.083       .  S
C532        H536   1.083       .  S
C537        C538   1.404       .  A
C537        C542   1.399       .  A
C537        H547   1.083       .  S
C538        C543   1.492       .  S
C538        C539   1.405       .  A
C539        C540   1.402       .  A
C539        H544   1.083       .  S
C540        C541   1.414       .  A
C540        H545   1.080       .  S
C541        C542   1.413       .  A
C542        H546   1.083       .  S
C543        C548   1.405       .  A
C543        C552   1.403       .  A
C548        C549   1.400       .  A
C548        H553   1.083       .  S
C549        C550   1.413       .  A
C549        H554   1.083       .  S
C550        C551   1.416       .  A
C551        C552   1.402       .  A
C551        H555   1.079       .  S
C552        H556   1.083       .  S
C557        C558   1.401       .  A
C557        C562   1.403       .  A
C557        H567   1.083       .  S
C558        C563   1.480       .  S
C558        C559   1.397       .  A
C559        C560   1.398       .  A
C559        H564   1.083       .  S
C560        C561   1.419       .  A
C560        H565   1.079       .  S
C561        C562   1.417       .  A
C562        H566   1.083       .  S
C563        C568   1.403       .  A
C563        C572   1.395       .  A
C568        C569   1.406       .  A
C568        H573   1.083       .  S
C569        C570   1.415       .  A
C569        H574   1.082       .  S
C570        C571   1.422       .  A
C571        C572   1.396       .  A
C571        H575   1.080       .  S
C572        H576   1.083       .  S
C577        C578   1.413       .  A
C577        C582   1.397       .  A
C577        H587   1.079       .  S
C578        C583   1.509       .  S
C578        C579   1.414       .  A
C579        C580   1.403       .  A
C579        H584   1.080       .  S
C580        C581   1.402       .  A
C580        H585   1.083       .  S
C581        C582   1.401       .  A
C582        H586   1.083       .  S
C583        C588   1.409       .  A
C583        C592   1.411       .  A
C588        C589   1.395       .  A
C588        H593   1.079       .  S
C589        C590   1.411       .  A
C589        H594   1.083       .  S
C590        C591   1.414       .  A
C591        C592   1.403       .  A
C591        H595   1.080       .  S
C592        H596   1.080       .  S
C597        C598   1.404       .  A
C597        C602   1.401       .  A
C597        H607   1.083       .  S
C598        C603   1.494       .  S
C598        C599   1.404       .  A
C599        C600   1.397       .  A
C599        H604   1.082       .  S
C600        C601   1.413       .  A
C600        H605   1.083       .  S
C601        C602   1.418       .  A
C602        H606   1.079       .  S
C603        C608   1.409       .  A
C603        C612   1.407       .  A
C608        C609   1.403       .  A
C608        H613   1.082       .  S
C609        C610   1.405       .  A
C609        H614   1.083       .  S
C610        C611   1.404       .  A
C611        C612   1.397       .  A
C611        H615   1.083       .  S
C612        H616   1.082       .  S
C617        C618   1.411       .  A
C617        C622   1.401       .  A
C617        H627   1.083       .  S
C618        C623   1.490       .  S
C618        C619   1.405       .  A
C619        C620   1.394       .  A
C619        H624   1.082       .  S
C620        C621   1.404       .  A
C620        H625   1.083       .  S
C621        C622   1.402       .  A
C622        H626   1.083       .  S
C623        C628   1.411       .  A
C623        C632   1.405       .  A
C628        C629   1.401       .  A
C628        H633   1.082       .  S
C629        C630   1.402       .  A
C629        H634   1.083       .  S
C630        C631   1.404       .  A
C631        C632   1.393       .  A
C631        H635   1.083       .  S
C632        H636   1.082       .  S
C637        C638   1.400       .  A
C637        C642   1.399       .  A
C637        H647   1.083       .  S
C638        C643   1.490       .  S
C638        C639   1.404       .  A
C639        C640   1.410       .  A
C639        H644   1.083       .  S
C640        C641   1.417       .  A
C640        H645   1.083       .  S
C641        C642   1.418       .  A
C642        H646   1.079       .  S
C643        C648   1.401       .  A
C643        C652   1.405       .  A
C648        C649   1.400       .  A
C648        H653   1.083       .  S
C649        C650   1.415       .  A
C649        H654   1.083       .  S
C650        C651   1.416       .  A
C651        C652   1.409       .  A
C651        H655   1.079       .  S
C652        H656   1.083       .  S
C657        C658   1.407       .  A
C657        C662   1.396       .  A
C657        H667   1.083       .  S
C658        C663   1.485       .  S
C658        C659   1.407       .  A
C659        C660   1.394       .  A
C659        H664   1.082       .  S
C660        C661   1.402       .  A
C660        H665   1.084       .  S
C661        C662   1.401       .  A
C662        H666   1.082       .  S
C663        C668   1.407       .  A
C663        C672   1.407       .  A
C668        C669   1.393       .  A
C668        H673   1.082       .  S
C669        C670   1.402       .  A
C669        H674   1.083       .  S
C670        C671   1.403       .  A
C671        C672   1.396       .  A
C671        H675   1.083       .  S
C672        H676   1.083       .  S
C677        C678   1.405   1_556  A
C677        C682   1.395       .  A
C677        H687   1.083       .  S
C678        C683   1.490       .  S
C678        C679   1.408       .  A
C679        C680   1.404       .  A
C679        H684   1.082       .  S
C680        C681   1.404       .  A
C680        H685   1.083       .  S
C681        C682   1.405   1_554  A
C682        H686   1.083       .  S
C683        C688   1.402       .  A
C683        C692   1.404       .  A
C688        C689   1.396       .  A
C688        H693   1.083       .  S
C689        C690   1.417       .  A
C689        H694   1.078       .  S
C690        C691   1.415       .  A
C691        C692   1.402       .  A
C691        H695   1.083       .  S
C692        H696   1.083       .  S
C697        C698   1.407       .  A
C697        C702   1.397       .  A
C697        H707   1.082       .  S
C698        C703   1.489       .  S
C698        C699   1.407       .  A
C699        C700   1.400       .  A
C699        H704   1.083       .  S
C700        C701   1.404       .  A
C700        H705   1.083       .  S
C701        C702   1.403       .  A
C702        H706   1.083       .  S
C703        C708   1.407       .  A
C703        C712   1.408       .  A
C708        C709   1.397       .  A
C708        H713   1.083       .  S
C709        C710   1.403       .  A
C709        H714   1.083       .  S
C710        C711   1.405       .  A
C711        C712   1.399       .  A
C711        H715   1.083       .  S
C712        H716   1.083       .  S
C717        C718   1.407       .  A
C717        C722   1.402       .  A
C717        H727   1.083       .  S
C718        C723   1.497       .  S
C718        C719   1.410   1_556  A
C719        C720   1.403       .  A
C719        H724   1.083       .  S
C720        C721   1.405   1_554  A
C720        H725   1.083       .  S
C721        C722   1.407       .  A
C722        H726   1.083       .  S
C723        C728   1.410       .  A
C723        C732   1.406   1_556  A
C728        C729   1.406       .  A
C728        H733   1.083       .  S
C729        C730   1.405       .  A
C729        H734   1.083       .  S
C730        C731   1.406   1_556  A
C731        C732   1.399       .  A
C731        H735   1.083       .  S
C732        H736   1.083       .  S
C737        C738   1.405       .  A
C737        C742   1.406       .  A
C737        H747   1.083       .  S
C738        C743   1.498       .  S
C738        C739   1.404       .  A
C739        C740   1.404       .  A
C739        H744   1.083       .  S
C740        C741   1.416       .  A
C740        H745   1.080       .  S
C741        C742   1.417       .  A
C742        H746   1.083       .  S
C743        C748   1.405       .  A
C743        C752   1.405       .  A
C748        C749   1.408       .  A
C748        H753   1.083       .  S
C749        C750   1.419       .  A
C749        H754   1.079       .  S
C750        C751   1.413       .  A
C751        C752   1.404       .  A
C751        H755   1.083       .  S
C752        H756   1.083       .  S
C757        C758   1.402       .  A
C757        C762   1.397       .  A
C757        H767   1.083       .  S
C758        C763   1.479       .  S
C758        C759   1.406       .  A
C759        C760   1.400       .  A
C759        H764   1.083       .  S
C760        C761   1.404       .  A
C760        H765   1.083       .  S
C761        C762   1.405       .  A
C762        H766   1.083       .  S
C763        C768   1.400       .  A
C763        C772   1.402       .  A
C768        C769   1.394       .  A
C768        H773   1.084       .  S
C769        C770   1.415       .  A
C769        H774   1.081       .  S
C770        C771   1.414       .  A
C771        C772   1.401       .  A
C771        H775   1.083       .  S
C772        H776   1.083       .  S
C777        C778   1.401   1_554  A
C777        C782   1.397   1_554  A
C777        H787   1.082       .  S
C778        C783   1.495   1_556  S
C778        C779   1.410       .  A
C779        C780   1.402       .  A
C779        H784   1.082       .  S
C780        C781   1.410       .  A
C780        H785   1.079       .  S
C781        C782   1.417       .  A
C782        H786   1.083       .  S
C783        C788   1.409       .  A
C783        C792   1.402       .  A
C788        C789   1.403       .  A
C788        H793   1.082       .  S
C789        C790   1.413       .  A
C789        H794   1.083       .  S
C790        C791   1.416       .  A
C791        C792   1.396       .  A
C791        H795   1.080       .  S
C792        H796   1.083   1_554  S
C797        C798   1.410       .  A
C797        C802   1.401       .  A
C797        H807   1.081       .  S
C798        C803   1.511       .  S
C798        C799   1.411       .  A
C799        C800   1.404       .  A
C799        H804   1.081       .  S
C800        C801   1.413       .  A
C800        H805   1.080       .  S
C801        C802   1.412       .  A
C802        H806   1.083       .  S
C803        C808   1.410       .  A
C803        C812   1.412       .  A
C808        C809   1.400       .  A
C808        H813   1.080       .  S
C809        C810   1.412       .  A
C809        H814   1.083       .  S
C810        C811   1.412       .  A
C811        C812   1.405       .  A
C811        H815   1.080       .  S
C812        H816   1.081       .  S
C817        C818   1.408       .  A
C817        C822   1.396       .  A
C817        H827   1.080       .  S
C818        C823   1.512       .  S
C818        C819   1.412       .  A
C819        C820   1.408       .  A
C819        H824   1.081       .  S
C820        C821   1.414       .  A
C820        H825   1.077       .  S
C821        C822   1.412       .  A
C822        H826   1.083       .  S
C823        C828   1.410       .  A
C823        C832   1.412       .  A
C828        C829   1.396       .  A
C828        H833   1.079       .  S
C829        C830   1.408       .  A
C829        H834   1.083       .  S
C830        C831   1.414       .  A
C831        C832   1.409       .  A
C831        H835   1.081       .  S
C832        H836   1.081       .  S
C837        C838   1.403       .  A
C837        C842   1.403       .  A
C837        H847   1.083       .  S
C838        C843   1.487   1_554  S
C838        C839   1.403       .  A
C839        C840   1.397       .  A
C839        H844   1.083       .  S
C840        C841   1.412       .  A
C840        H845   1.083       .  S
C841        C842   1.417       .  A
C842        H846   1.080       .  S
C843        C848   1.402       .  A
C843        C852   1.403       .  A
C848        C849   1.403       .  A
C848        H853   1.083   1_556  S
C849        C850   1.418       .  A
C849        H854   1.079       .  S
C850        C851   1.413       .  A
C851        C852   1.397       .  A
C851        H855   1.083       .  S
C852        H856   1.083       .  S
C857        C858   1.400   1_556  A
C857        C862   1.394   1_556  A
C857        H867   1.082       .  S
C858        C863   1.498   1_554  S
C858        C859   1.410       .  A
C859        C860   1.402       .  A
C859        H864   1.081       .  S
C860        C861   1.412       .  A
C860        H865   1.083       .  S
C861        C862   1.422       .  A
C862        H866   1.078       .  S
C863        C868   1.409       .  A
C863        C872   1.403       .  A
C868        C869   1.401       .  A
C868        H873   1.082       .  S
C869        C870   1.412       .  A
C869        H874   1.083       .  S
C870        C871   1.417       .  A
C871        C872   1.396       .  A
C871        H875   1.078       .  S
C872        H876   1.082   1_556  S
C877        C878   1.407       .  A
C877        C882   1.392       .  A
C877        H887   1.082       .  S
C878        C883   1.489       .  S
C878        C879   1.409       .  A
C879        C880   1.401       .  A
C879        H884   1.082       .  S
C880        C881   1.403       .  A
C880        H885   1.083       .  S
C881        C882   1.402       .  A
C882        H886   1.083       .  S
C883        C888   1.408       .  A
C883        C892   1.408       .  A
C888        C889   1.398       .  A
C888        H893   1.082       .  S
C889        C890   1.403       .  A
C889        H894   1.083       .  S
C890        C891   1.403       .  A
C891        C892   1.395       .  A
C891        H895   1.083       .  S
C892        H896   1.083       .  S
C897        C898   1.410       .  A
C897        C902   1.403       .  A
C897        H907   1.083       .  S
C898        C903   1.493       .  S
C898        C899   1.407       .  A
C899        C900   1.394       .  A
C899        H904   1.082       .  S
C900        C901   1.401       .  A
C900        H905   1.083   1_554  S
C901        C902   1.405       .  A
C902        H906   1.083       .  S
C903        C908   1.404       .  A
C903        C912   1.405       .  A
C908        C909   1.401       .  A
C908        H913   1.082       .  S
C909        C910   1.419       .  A
C909        H914   1.080       .  S
C910        C911   1.411       .  A
C911        C912   1.393       .  A
C911        H915   1.082       .  S
C912        H916   1.082       .  S
C917        C918   1.407       .  A
C917        C922   1.395       .  A
C917        H927   1.082       .  S
C918        C923   1.484       .  S
C918        C919   1.407       .  A
C919        C920   1.395       .  A
C919        H924   1.082       .  S
C920        C921   1.403       .  A
C920        H925   1.083       .  S
C921        C922   1.402       .  A
C922        H926   1.083       .  S
C923        C928   1.407       .  A
C923        C932   1.407       .  A
C928        C929   1.393       .  A
C928        H933   1.082       .  S
C929        C930   1.401       .  A
C929        H934   1.084       .  S
C930        C931   1.402       .  A
C931        C932   1.397       .  A
C931        H935   1.083       .  S
C932        H936   1.083       .  S
C937        C938   1.409       .  A
C937        C942   1.402       .  A
C937        H947   1.082       .  S
C938        C943   1.494       .  S
C938        C939   1.407       .  A
C939        C940   1.398       .  A
C939        H944   1.082   1_556  S
C940        C941   1.405       .  A
C940        H945   1.083   1_556  S
C941        C942   1.404       .  A
C942        H946   1.083       .  S
C943        C948   1.404       .  A
C943        C952   1.407       .  A
C948        C949   1.397       .  A
C948        H953   1.082       .  S
C949        C950   1.415       .  A
C949        H954   1.083       .  S
C950        C951   1.413       .  A
C951        C952   1.401       .  A
C951        H955   1.079       .  S
C952        H956   1.083       .  S
C957        C958   1.404       .  A
C957        C962   1.397       .  A
C957        H967   1.083       .  S
C958        C963   1.484       .  S
C958        C959   1.406   1_554  A
C959        C960   1.400       .  A
C959        H964   1.083       .  S
C960        C961   1.404   1_556  A
C960        H965   1.083       .  S
C961        C962   1.405       .  A
C962        H966   1.083       .  S
C963        C968   1.407       .  A
C963        C972   1.404   1_554  A
C968        C969   1.400       .  A
C968        H973   1.083       .  S
C969        C970   1.403       .  A
C969        H974   1.083       .  S
C970        C971   1.405   1_554  A
C971        C972   1.396       .  A
C971        H975   1.083       .  S
C972        H976   1.083       .  S
C977        C978   1.414       .  A
C977        C982   1.407       .  A
C977        H987   1.080       .  S
C978        C983   1.519       .  S
C978        C979   1.411       .  A
C979        C980   1.401       .  A
C979        H984   1.079       .  S
C980        C981   1.412       .  A
C980        H985   1.083       .  S
C981        C982   1.413       .  A
C982        H986   1.080       .  S
C983        C988   1.412       .  A
C983        C992   1.412       .  A
C988        C989   1.405       .  A
C988        H993   1.080       .  S
C989        C990   1.413       .  A
C989        H994   1.077       .  S
C990        C991   1.413       .  A
C991        C992   1.404       .  A
C991        H995   1.083       .  S
C992        H996   1.080       .  S
C997        C998   1.399   1_556  A
C997       C1002   1.395   1_556  A
C997       H1007   1.083       .  S
C998       C1003   1.490   1_554  S
C998        C999   1.407       .  A
C999       C1000   1.408       .  A
C999       H1004   1.083       .  S
C1000      C1001   1.414       .  A
C1000      H1005   1.079       .  S
C1001      C1002   1.417       .  A
C1002      H1006   1.083   1_554  S
C1003      C1008   1.403       .  A
C1003      C1012   1.403       .  A
C1008      C1009   1.398       .  A
C1008      H1013   1.083       .  S
C1009      C1010   1.415       .  A
C1009      H1014   1.083       .  S
C1010      C1011   1.417       .  A
C1011      C1012   1.405       .  A
C1011      H1015   1.078       .  S
C1012      H1016   1.083   1_556  S
C1017      C1018   1.405       .  A
C1017      C1022   1.405       .  A
C1017      H1027   1.083       .  S
C1018      C1023   1.500       .  S
C1018      C1019   1.405       .  A
C1019      C1020   1.405       .  A
C1019      H1024   1.083       .  S
C1020      C1021   1.416       .  A
C1020      H1025   1.082       .  S
C1021      C1022   1.417       .  A
C1022      H1026   1.080       .  S
C1023      C1028   1.405       .  A
C1023      C1032   1.405       .  A
C1028      C1029   1.404       .  A
C1028      H1033   1.083       .  S
C1029      C1030   1.415       .  A
C1029      H1034   1.083       .  S
C1030      C1031   1.417       .  A
C1031      C1032   1.406       .  A
C1031      H1035   1.078       .  S
C1032      H1036   1.083       .  S
C1037      C1038   1.399   1_554  A
C1037      C1042   1.399   1_554  A
C1037      H1047   1.083       .  S
C1038      C1043   1.486   1_556  S
C1038      C1039   1.403       .  A
C1039      C1040   1.403       .  A
C1039      H1044   1.083       .  S
C1040      C1041   1.416       .  A
C1040      H1045   1.079       .  S
C1041      C1042   1.417       .  A
C1042      H1046   1.083       .  S
C1043      C1048   1.402       .  A
C1043      C1052   1.401       .  A
C1048      C1049   1.402       .  A
C1048      H1053   1.083       .  S
C1049      C1050   1.415       .  A
C1049      H1054   1.083       .  S
C1050      C1051   1.417       .  A
C1051      C1052   1.401       .  A
C1051      H1055   1.081       .  S
C1052      H1056   1.083   1_554  S
C1057      C1058   1.414       .  A
C1057      C1062   1.405       .  A
C1057      H1067   1.081       .  S
C1058      C1063   1.502   1_554  S
C1058      C1059   1.403   1_554  A
C1059      C1060   1.394   1_556  A
C1059      H1064   1.082       .  S
C1060      C1061   1.415       .  A
C1060      H1065   1.081       .  S
C1061      C1062   1.409       .  A
C1062      H1066   1.080       .  S
C1063      C1068   1.402       .  A
C1063      C1072   1.411       .  A
C1068      C1069   1.396       .  A
C1068      H1073   1.082   1_556  S
C1069      C1070   1.419       .  A
C1069      H1074   1.078       .  S
C1070      C1071   1.412       .  A
C1071      C1072   1.403       .  A
C1071      H1075   1.084       .  S
C1072      H1076   1.082       .  S
C1077      C1078   1.405       .  A
C1077      C1082   1.397       .  A
C1077      H1087   1.083       .  S
C1078      C1083   1.483       .  S
C1078      C1079   1.406       .  A
C1079      C1080   1.397       .  A
C1079      H1084   1.083       .  S
C1080      C1081   1.404       .  A
C1080      H1085   1.083       .  S
C1081      C1082   1.404       .  A
C1082      H1086   1.083       .  S
C1083      C1088   1.406       .  A
C1083      C1092   1.404       .  A
C1088      C1089   1.400       .  A
C1088      H1093   1.083       .  S
C1089      C1090   1.405       .  A
C1089      H1094   1.083       .  S
C1090      C1091   1.404       .  A
C1091      C1092   1.395       .  A
C1091      H1095   1.083       .  S
C1092      H1096   1.083       .  S
C1097      C1098   1.408       .  A
C1097      C1102   1.403       .  A
C1097      H1107   1.083       .  S
C1098      C1103   1.494       .  S
C1098      C1099   1.408       .  A
C1099      C1100   1.401       .  A
C1099      H1104   1.082       .  S
C1100      C1101   1.404       .  A
C1100      H1105   1.083   1_556  S
C1101      C1102   1.406       .  A
C1102      H1106   1.083       .  S
C1103      C1108   1.403       .  A
C1103      C1112   1.405       .  A
C1108      C1109   1.401       .  A
C1108      H1113   1.083       .  S
C1109      C1110   1.419       .  A
C1109      H1114   1.079       .  S
C1110      C1111   1.414       .  A
C1111      C1112   1.400       .  A
C1111      H1115   1.083       .  S
C1112      H1116   1.083   1_556  S
C1117      C1118   1.406       .  A
C1117      C1122   1.394       .  A
C1117      H1127   1.082       .  S
C1118      C1123   1.486       .  S
C1118      C1119   1.408       .  A
C1119      C1120   1.397       .  A
C1119      H1124   1.082       .  S
C1120      C1121   1.402       .  A
C1120      H1125   1.083       .  S
C1121      C1122   1.402       .  A
C1122      H1126   1.083       .  S
C1123      C1128   1.407       .  A
C1123      C1132   1.408       .  A
C1128      C1129   1.398       .  A
C1128      H1133   1.083       .  S
C1129      C1130   1.404       .  A
C1129      H1134   1.083       .  S
C1130      C1131   1.401       .  A
C1131      C1132   1.394       .  A
C1131      H1135   1.083       .  S
C1132      H1136   1.082       .  S
C1137      C1138   1.406       .  A
C1137      C1142   1.402       .  A
C1137      H1147   1.083       .  S
C1138      C1143   1.483       .  S
C1138      C1139   1.403       .  A
C1139      C1140   1.400       .  A
C1139      H1144   1.083       .  S
C1140      C1141   1.406       .  A
C1140      H1145   1.083       .  S
C1141      C1142   1.404       .  A
C1142      H1146   1.083       .  S
C1143      C1148   1.403       .  A
C1143      C1152   1.400       .  A
C1148      C1149   1.403       .  A
C1148      H1153   1.083       .  S
C1149      C1150   1.413       .  A
C1149      H1154   1.083       .  S
C1150      C1151   1.416       .  A
C1151      C1152   1.396       .  A
C1151      H1155   1.081       .  S
C1152      H1156   1.084       .  S
C1157      C1158   1.409   1_554  A
C1157      C1162   1.405       .  A
C1157      H1167   1.083       .  S
C1158      C1163   1.490   1_556  S
C1158      C1159   1.404       .  A
C1159      C1160   1.397       .  A
C1159      H1164   1.083       .  S
C1160      C1161   1.406       .  A
C1160      H1165   1.083       .  S
C1161      C1162   1.405   1_556  A
C1162      H1166   1.083       .  S
C1163      C1168   1.405       .  A
C1163      C1172   1.409   1_554  A
C1168      C1169   1.399       .  A
C1168      H1173   1.083       .  S
C1169      C1170   1.406       .  A
C1169      H1174   1.083       .  S
C1170      C1171   1.405   1_554  A
C1171      C1172   1.403       .  A
C1171      H1175   1.083       .  S
C1172      H1176   1.083       .  S
C1177      C1178   1.409       .  A
C1177      C1182   1.401       .  A
C1177      H1187   1.083       .  S
C1178      C1183   1.491       .  S
C1178      C1179   1.407       .  A
C1179      C1180   1.396       .  A
C1179      H1184   1.082       .  S
C1180      C1181   1.403       .  A
C1180      H1185   1.083       .  S
C1181      C1182   1.405       .  A
C1182      H1186   1.083       .  S
C1183      C1188   1.407   1_455  A
C1183      C1192   1.408   1_455  A
C1188      C1189   1.397       .  A
C1188      H1193   1.082   1_655  S
C1189      C1190   1.404       .  A
C1189      H1194   1.083       .  S
C1190      C1191   1.403       .  A
C1191      C1192   1.399       .  A
C1191      H1195   1.083       .  S
C1192      H1196   1.082       .  S
C1197      C1198   1.407       .  A
C1197      C1202   1.398       .  A
C1197      H1207   1.083       .  S
C1198      C1203   1.482       .  S
C1198      C1199   1.404       .  A
C1199      C1200   1.395       .  A
C1199      H1204   1.083       .  S
C1200      C1201   1.404       .  A
C1200      H1205   1.083   1_556  S
C1201      C1202   1.404       .  A
C1202      H1206   1.083       .  S
C1203      C1208   1.400       .  A
C1203      C1212   1.405       .  A
C1208      C1209   1.391       .  A
C1208      H1213   1.083       .  S
C1209      C1210   1.413       .  A
C1209      H1214   1.082       .  S
C1210      C1211   1.412       .  A
C1211      C1212   1.401       .  A
C1211      H1215   1.080       .  S
C1212      H1216   1.083       .  S
C1217      C1218   1.410       .  A
C1217      C1222   1.404       .  A
C1217      H1227   1.082       .  S
C1218      C1223   1.502       .  S
C1218      C1219   1.409       .  A
C1219      C1220   1.400   1_554  A
C1219      H1224   1.082   1_554  S
C1220      C1221   1.404   1_556  A
C1220      H1225   1.083       .  S
C1221      C1222   1.406       .  A
C1222      H1226   1.083       .  S
C1223      C1228   1.409       .  A
C1223      C1232   1.410       .  A
C1228      C1229   1.402       .  A
C1228      H1233   1.082       .  S
C1229      C1230   1.406       .  A
C1229      H1234   1.083       .  S
C1230      C1231   1.405       .  A
C1231      C1232   1.404       .  A
C1231      H1235   1.083       .  S
C1232      H1236   1.082       .  S
C1237      C1238   1.409   1_554  A
C1237      C1242   1.401       .  A
C1237      H1247   1.083       .  S
C1238      C1243   1.490       .  S
C1238      C1239   1.405       .  A
C1239      C1240   1.398       .  A
C1239      H1244   1.083       .  S
C1240      C1241   1.407       .  A
C1240      H1245   1.083       .  S
C1241      C1242   1.403   1_556  A
C1242      H1246   1.083       .  S
C1243      C1248   1.410       .  A
C1243      C1252   1.405   1_556  A
C1248      C1249   1.403       .  A
C1248      H1253   1.082       .  S
C1249      C1250   1.404       .  A
C1249      H1254   1.083       .  S
C1250      C1251   1.404   1_556  A
C1251      C1252   1.394       .  A
C1251      H1255   1.083       .  S
C1252      H1256   1.082       .  S
C1257      C1258   1.404       .  A
C1257      C1262   1.400       .  A
C1257      H1267   1.083       .  S
C1258      C1263   1.489       .  S
C1258      C1259   1.402       .  A
C1259      C1260   1.396       .  A
C1259      H1264   1.083       .  S
C1260      C1261   1.414       .  A
C1260      H1265   1.083       .  S
C1261      C1262   1.416       .  A
C1262      H1266   1.078       .  S
C1263      C1268   1.406   1_554  A
C1263      C1272   1.408       .  A
C1268      C1269   1.397       .  A
C1268      H1273   1.083       .  S
C1269      C1270   1.405   1_556  A
C1269      H1274   1.083       .  S
C1270      C1271   1.403       .  A
C1271      C1272   1.400       .  A
C1271      H1275   1.083       .  S
C1272      H1276   1.083       .  S
C1277      C1278   1.398       .  A
C1277      C1282   1.398       .  A
C1277      H1287   1.083   1_556  S
C1278      C1283   1.478   1_556  S
C1278      C1279   1.402       .  A
C1279      C1280   1.400       .  A
C1279      H1284   1.083       .  S
C1280      C1281   1.412       .  A
C1280      H1285   1.083       .  S
C1281      C1282   1.418       .  A
C1282      H1286   1.081       .  S
C1283      C1288   1.403       .  A
C1283      C1292   1.397   1_554  A
C1288      C1289   1.404       .  A
C1288      H1293   1.083       .  S
C1289      C1290   1.413       .  A
C1289      H1294   1.079       .  S
C1290      C1291   1.419       .  A
C1291      C1292   1.395   1_554  A
C1291      H1295   1.083   1_554  S
C1292      H1296   1.084       .  S
C1297      C1298   1.403       .  A
C1297      C1302   1.400       .  A
C1297      H1307   1.083       .  S
C1298      C1303   1.477   1_556  S
C1298      C1299   1.397   1_556  A
C1299      C1300   1.398   1_554  A
C1299      H1304   1.083       .  S
C1300      C1301   1.420       .  A
C1300      H1305   1.083   1_556  S
C1301      C1302   1.412       .  A
C1302      H1306   1.078       .  S
C1303      C1308   1.396       .  A
C1303      C1312   1.403       .  A
C1308      C1309   1.391       .  A
C1308      H1313   1.084   1_554  S
C1309      C1310   1.416       .  A
C1309      H1314   1.080       .  S
C1310      C1311   1.416       .  A
C1311      C1312   1.406       .  A
C1311      H1315   1.083       .  S
C1312      H1316   1.083       .  S
C1317      C1318   1.407       .  A
C1317      C1322   1.395       .  A
C1317      H1327   1.081   1_554  S
C1318      C1323   1.504   1_554  S
C1318      C1319   1.410       .  A
C1319      C1320   1.400       .  A
C1319      H1324   1.080       .  S
C1320      C1321   1.411       .  A
C1320      H1325   1.083       .  S
C1321      C1322   1.414       .  A
C1322      H1326   1.079       .  S
C1323      C1328   1.411       .  A
C1323      C1332   1.406       .  A
C1328      C1329   1.400       .  A
C1328      H1333   1.081       .  S
C1329      C1330   1.411       .  A
C1329      H1334   1.082       .  S
C1330      C1331   1.415       .  A
C1331      C1332   1.397       .  A
C1331      H1335   1.079       .  S
C1332      H1336   1.081   1_556  S
C1337      C1338   1.410   1_545  A
C1337      C1342   1.400       .  A
C1337      H1347   1.082   1_545  S
C1338      C1343   1.496       .  S
C1338      C1339   1.408   1_565  A
C1339      C1340   1.397       .  A
C1339      H1344   1.081   1_545  S
C1340      C1341   1.404       .  A
C1340      H1345   1.083       .  S
C1341      C1342   1.402       .  A
C1342      H1346   1.083       .  S
C1343      C1348   1.410       .  A
C1343      C1352   1.408       .  A
C1348      C1349   1.400       .  A
C1348      H1353   1.082       .  S
C1349      C1350   1.403       .  A
C1349      H1354   1.083       .  S
C1350      C1351   1.403       .  A
C1351      C1352   1.397       .  A
C1351      H1355   1.083       .  S
C1352      H1356   1.082       .  S
C1357      C1358   1.404       .  A
C1357      C1362   1.396       .  A
C1357      H1367   1.082       .  S
C1358      C1363   1.492       .  S
C1358      C1359   1.407       .  A
C1359      C1360   1.399       .  A
C1359      H1364   1.082       .  S
C1360      C1361   1.412       .  A
C1360      H1365   1.080       .  S
C1361      C1362   1.413       .  A
C1362      H1366   1.083       .  S
C1363      C1368   1.410       .  A
C1363      C1372   1.407       .  A
C1368      C1369   1.400       .  A
C1368      H1373   1.082       .  S
C1369      C1370   1.403       .  A
C1369      H1374   1.083       .  S
C1370      C1371   1.403       .  A
C1371      C1372   1.394       .  A
C1371      H1375   1.083   1_554  S
C1372      H1376   1.082       .  S
C1377      C1378   1.407       .  A
C1377      C1382   1.398       .  A
C1377      H1387   1.082       .  S
C1378      C1383   1.499       .  S
C1378      C1379   1.410       .  A
C1379      C1380   1.407       .  A
C1379      H1384   1.082       .  S
C1380      C1381   1.406       .  A
C1380      H1385   1.083       .  S
C1381      C1382   1.405       .  A
C1382      H1386   1.083   1_556  S
C1383      C1388   1.409       .  A
C1383      C1392   1.409       .  A
C1388      C1389   1.404       .  A
C1388      H1393   1.082       .  S
C1389      C1390   1.406       .  A
C1389      H1394   1.083       .  S
C1390      C1391   1.405       .  A
C1391      C1392   1.401       .  A
C1391      H1395   1.083       .  S
C1392      H1396   1.083       .  S
C1397      C1398   1.407       .  A
C1397      C1402   1.404       .  A
C1397      H1407   1.083       .  S
C1398      C1403   1.485       .  S
C1398      C1399   1.404   1_556  A
C1399      C1400   1.394       .  A
C1399      H1404   1.083       .  S
C1400      C1401   1.404   1_554  A
C1400      H1405   1.083       .  S
C1401      C1402   1.406       .  A
C1402      H1406   1.083       .  S
C1403      C1408   1.402       .  A
C1403      C1412   1.402       .  A
C1408      C1409   1.400       .  A
C1408      H1413   1.083       .  S
C1409      C1410   1.415       .  A
C1409      H1414   1.083       .  S
C1410      C1411   1.414       .  A
C1411      C1412   1.395       .  A
C1411      H1415   1.078       .  S
C1412      H1416   1.083       .  S
C1417      C1418   1.410       .  A
C1417      C1422   1.403       .  A
C1417      H1427   1.083       .  S
C1418      C1423   1.493       .  S
C1418      C1419   1.405   1_554  A
C1419      C1420   1.396       .  A
C1419      H1424   1.083       .  S
C1420      C1421   1.404   1_556  A
C1420      H1425   1.083       .  S
C1421      C1422   1.404       .  A
C1422      H1426   1.083       .  S
C1423      C1428   1.410   1_554  A
C1423      C1432   1.405       .  A
C1428      C1429   1.402       .  A
C1428      H1433   1.082       .  S
C1429      C1430   1.403   1_556  A
C1429      H1434   1.083       .  S
C1430      C1431   1.407       .  A
C1431      C1432   1.398       .  A
C1431      H1435   1.083       .  S
C1432      H1436   1.083       .  S
C1437      C1438   1.412       .  A
C1437      C1442   1.400       .  A
C1437      H1447   1.082       .  S
C1438      C1443   1.502   1_655  S
C1438      C1439   1.410       .  A
C1439      C1440   1.399       .  A
C1439      H1444   1.081       .  S
C1440      C1441   1.403       .  A
C1440      H1445   1.083       .  S
C1441      C1442   1.403       .  A
C1442      H1446   1.084       .  S
C1443      C1448   1.410       .  A
C1443      C1452   1.412       .  A
C1448      C1449   1.397       .  A
C1448      H1453   1.081       .  S
C1449      C1450   1.403       .  A
C1449      H1454   1.083       .  S
C1450      C1451   1.403       .  A
C1451      C1452   1.403       .  A
C1451      H1455   1.083       .  S
C1452      H1456   1.082       .  S
C1457      C1458   1.410   1_545  A
C1457      C1462   1.401       .  A
C1457      H1467   1.081       .  S
C1458      C1463   1.500       .  S
C1458      C1459   1.410   1_565  A
C1459      C1460   1.400       .  A
C1459      H1464   1.082       .  S
C1460      C1461   1.404       .  A
C1460      H1465   1.083       .  S
C1461      C1462   1.403       .  A
C1462      H1466   1.083       .  S
C1463      C1468   1.411       .  A
C1463      C1472   1.408       .  A
C1468      C1469   1.404       .  A
C1468      H1473   1.082       .  S
C1469      C1470   1.404       .  A
C1469      H1474   1.083       .  S
C1470      C1471   1.405       .  A
C1471      C1472   1.398       .  A
C1471      H1475   1.083       .  S
C1472      H1476   1.081       .  S
C1477      C1478   1.405       .  A
C1477      C1482   1.399       .  A
C1477      H1487   1.082       .  S
C1478      C1483   1.492       .  S
C1478      C1479   1.410   1_554  A
C1479      C1480   1.401       .  A
C1479      H1484   1.082       .  S
C1480      C1481   1.403   1_556  A
C1480      H1485   1.083       .  S
C1481      C1482   1.407       .  A
C1482      H1486   1.083       .  S
C1483      C1488   1.405   1_554  A
C1483      C1492   1.410       .  A
C1488      C1489   1.395       .  A
C1488      H1493   1.083       .  S
C1489      C1490   1.404   1_556  A
C1489      H1494   1.083       .  S
C1490      C1491   1.405       .  A
C1491      C1492   1.404       .  A
C1491      H1495   1.083       .  S
C1492      H1496   1.083       .  S
C1497      C1498   1.408       .  A
C1497      C1502   1.404       .  A
C1497      H1507   1.082       .  S
C1498      C1503   1.500   1_554  S
C1498      C1499   1.406   1_554  A
C1499      C1500   1.397   1_556  A
C1499      H1504   1.082       .  S
C1500      C1501   1.412       .  A
C1500      H1505   1.083       .  S
C1501      C1502   1.415       .  A
C1502      H1506   1.080       .  S
C1503      C1508   1.406   1_556  A
C1503      C1512   1.407       .  A
C1508      C1509   1.402   1_554  A
C1508      H1513   1.082       .  S
C1509      C1510   1.415       .  A
C1509      H1514   1.083   1_556  S
C1510      C1511   1.412       .  A
C1511      C1512   1.399       .  A
C1511      H1515   1.080       .  S
C1512      H1516   1.082       .  S
C1517      C1518   1.407       .  A
C1517      C1522   1.398       .  A
C1517      H1527   1.082       .  S
C1518      C1523   1.489       .  S
C1518      C1519   1.407       .  A
C1519      C1520   1.396       .  A
C1519      H1524   1.083       .  S
C1520      C1521   1.404       .  A
C1520      H1525   1.083   1_554  S
C1521      C1522   1.403       .  A
C1522      H1526   1.083       .  S
C1523      C1528   1.404       .  A
C1523      C1532   1.404       .  A
C1528      C1529   1.396       .  A
C1528      H1533   1.082       .  S
C1529      C1530   1.414       .  A
C1529      H1534   1.083       .  S
C1530      C1531   1.414       .  A
C1531      C1532   1.397       .  A
C1531      H1535   1.079       .  S
C1532      H1536   1.083       .  S
C1537      C1538   1.403   1_556  A
C1537      C1542   1.398   1_556  A
C1537      H1547   1.083       .  S
C1538      C1543   1.494   1_554  S
C1538      C1539   1.406       .  A
C1539      C1540   1.403       .  A
C1539      H1544   1.083       .  S
C1540      C1541   1.414       .  A
C1540      H1545   1.080       .  S
C1541      C1542   1.414       .  A
C1542      H1546   1.083   1_554  S
C1543      C1548   1.405       .  A
C1543      C1552   1.404       .  A
C1548      C1549   1.400       .  A
C1548      H1553   1.083       .  S
C1549      C1550   1.415       .  A
C1549      H1554   1.081       .  S
C1550      C1551   1.414       .  A
C1551      C1552   1.400       .  A
C1551      H1555   1.083       .  S
C1552      H1556   1.083   1_556  S
C1557      C1558   1.402       .  A
C1557      C1562   1.397       .  A
C1557      H1567   1.083       .  S
C1558      C1563   1.488       .  S
C1558      C1559   1.406       .  A
C1559      C1560   1.399       .  A
C1559      H1564   1.083       .  S
C1560      C1561   1.411       .  A
C1560      H1565   1.080       .  S
C1561      C1562   1.415       .  A
C1562      H1566   1.083       .  S
C1563      C1568   1.409       .  A
C1563      C1572   1.404       .  A
C1568      C1569   1.404       .  A
C1568      H1573   1.083       .  S
C1569      C1570   1.406       .  A
C1569      H1574   1.083       .  S
C1570      C1571   1.403       .  A
C1571      C1572   1.394       .  A
C1571      H1575   1.083   1_556  S
C1572      H1576   1.083       .  S
C1577      C1578   1.403       .  A
C1577      C1582   1.398       .  A
C1577      H1587   1.083   1_556  S
C1578      C1583   1.494   1_556  S
C1578      C1579   1.405       .  A
C1579      C1580   1.404       .  A
C1579      H1584   1.082       .  S
C1580      C1581   1.414       .  A
C1580      H1585   1.083       .  S
C1581      C1582   1.418       .  A
C1582      H1586   1.080       .  S
C1583      C1588   1.400       .  A
C1583      C1592   1.406       .  A
C1588      C1589   1.396       .  A
C1588      H1593   1.083       .  S
C1589      C1590   1.418       .  A
C1589      H1594   1.077       .  S
C1590      C1591   1.416       .  A
C1591      C1592   1.407       .  A
C1591      H1595   1.083       .  S
C1592      H1596   1.083       .  S
C1597      C1598   1.410       .  A
C1597      C1602   1.403       .  A
C1597      H1607   1.082       .  S
C1598      C1603   1.506       .  S
C1598      C1599   1.408       .  A
C1599      C1600   1.399       .  A
C1599      H1604   1.080       .  S
C1600      C1601   1.413       .  A
C1600      H1605   1.083       .  S
C1601      C1602   1.412       .  A
C1602      H1606   1.079       .  S
C1603      C1608   1.409       .  A
C1603      C1612   1.409       .  A
C1608      C1609   1.401       .  A
C1608      H1613   1.081       .  S
C1609      C1610   1.413       .  A
C1609      H1614   1.081       .  S
C1610      C1611   1.412       .  A
C1611      C1612   1.400       .  A
C1611      H1615   1.083       .  S
C1612      H1616   1.081       .  S
C1617      C1618   1.409       .  A
C1617      C1622   1.399       .  A
C1617      H1627   1.081       .  S
C1618      C1623   1.504   1_655  S
C1618      C1619   1.412       .  A
C1619      C1620   1.406       .  A
C1619      H1624   1.082       .  S
C1620      C1621   1.405       .  A
C1620      H1625   1.083       .  S
C1621      C1622   1.404       .  A
C1622      H1626   1.083       .  S
C1623      C1628   1.411       .  A
C1623      C1632   1.410       .  A
C1628      C1629   1.403       .  A
C1628      H1633   1.082       .  S
C1629      C1630   1.405       .  A
C1629      H1634   1.083       .  S
C1630      C1631   1.404       .  A
C1631      C1632   1.402       .  A
C1631      H1635   1.083       .  S
C1632      H1636   1.081       .  S
C1637      C1638   1.408       .  A
C1637      C1642   1.395       .  A
C1637      H1647   1.082       .  S
C1638      C1643   1.486       .  S
C1638      C1639   1.406       .  A
C1639      C1640   1.397       .  A
C1639      H1644   1.083       .  S
C1640      C1641   1.404       .  A
C1640      H1645   1.083       .  S
C1641      C1642   1.402       .  A
C1642      H1646   1.083       .  S
C1643      C1648   1.405       .  A
C1643      C1652   1.409       .  A
C1648      C1649   1.391       .  A
C1648      H1653   1.082       .  S
C1649      C1650   1.402       .  A
C1649      H1654   1.084       .  S
C1650      C1651   1.403       .  A
C1651      C1652   1.400       .  A
C1651      H1655   1.083       .  S
C1652      H1656   1.082       .  S
C1657      C1658   1.408       .  A
C1657      C1662   1.399       .  A
C1657      H1667   1.083       .  S
C1658      C1663   1.488       .  S
C1658      C1659   1.406       .  A
C1659      C1660   1.396       .  A
C1659      H1664   1.082       .  S
C1660      C1661   1.404       .  A
C1660      H1665   1.083       .  S
C1661      C1662   1.403       .  A
C1662      H1666   1.083       .  S
C1663      C1668   1.402       .  A
C1663      C1672   1.404       .  A
C1668      C1669   1.396       .  A
C1668      H1673   1.082       .  S
C1669      C1670   1.416       .  A
C1669      H1674   1.077       .  S
C1670      C1671   1.414       .  A
C1671      C1672   1.396       .  A
C1671      H1675   1.083       .  S
C1672      H1676   1.083       .  S
C1677      C1678   1.410       .  A
C1677      C1682   1.400       .  A
C1677      H1687   1.082       .  S
C1678      C1683   1.496       .  S
C1678      C1679   1.409       .  A
C1679      C1680   1.399       .  A
C1679      H1684   1.082       .  S
C1680      C1681   1.402       .  A
C1680      H1685   1.083       .  S
C1681      C1682   1.404       .  A
C1682      H1686   1.083       .  S
C1683      C1688   1.410       .  A
C1683      C1692   1.408       .  A
C1688      C1689   1.402       .  A
C1688      H1693   1.082       .  S
C1689      C1690   1.404       .  A
C1689      H1694   1.083       .  S
C1690      C1691   1.403       .  A
C1691      C1692   1.396       .  A
C1691      H1695   1.083       .  S
C1692      H1696   1.082       .  S
C1697      C1698   1.407       .  A
C1697      C1702   1.398       .  A
C1697      H1707   1.083       .  S
C1698      C1703   1.486       .  S
C1698      C1699   1.406       .  A
C1699      C1700   1.396       .  A
C1699      H1704   1.083       .  S
C1700      C1701   1.404       .  A
C1700      H1705   1.083       .  S
C1701      C1702   1.403       .  A
C1702      H1706   1.083       .  S
C1703      C1708   1.406       .  A
C1703      C1712   1.407       .  A
C1708      C1709   1.394       .  A
C1708      H1713   1.082       .  S
C1709      C1710   1.402       .  A
C1709      H1714   1.083       .  S
C1710      C1711   1.404       .  A
C1711      C1712   1.399       .  A
C1711      H1715   1.083       .  S
C1712      H1716   1.083       .  S
C1717      C1718   1.405       .  A
C1717      C1722   1.395       .  A
C1717      H1727   1.082       .  S
C1718      C1723   1.493       .  S
C1718      C1719   1.411       .  A
C1719      C1720   1.404       .  A
C1719      H1724   1.083       .  S
C1720      C1721   1.405       .  A
C1720      H1725   1.083       .  S
C1721      C1722   1.404       .  A
C1722      H1726   1.083       .  S
C1723      C1728   1.411       .  A
C1723      C1732   1.405       .  A
C1728      C1729   1.401       .  A
C1728      H1733   1.082       .  S
C1729      C1730   1.403       .  A
C1729      H1734   1.083       .  S
C1730      C1731   1.406       .  A
C1731      C1732   1.397       .  A
C1731      H1735   1.083       .  S
C1732      H1736   1.083       .  S
C1737      C1738   1.401       .  A
C1737      C1742   1.399       .  A
C1737      H1747   1.082       .  S
C1738      C1743   1.492       .  S
C1738      C1739   1.404       .  A
C1739      C1740   1.409       .  A
C1739      H1744   1.085       .  S
C1740      C1741   1.418       .  A
C1740      H1745   1.078       .  S
C1741      C1742   1.415       .  A
C1742      H1746   1.085       .  S
C1743      C1748   1.400       .  A
C1743      C1752   1.405       .  A
C1748      C1749   1.399       .  A
C1748      H1753   1.084       .  S
C1749      C1750   1.417       .  A
C1749      H1754   1.078       .  S
C1750      C1751   1.417       .  A
C1751      C1752   1.410       .  A
C1751      H1755   1.083       .  S
C1752      H1756   1.082       .  S
C1757      C1758   1.398       .  A
C1757      C1762   1.394       .  A
C1757      H1767   1.083       .  S
C1758      C1763   1.474       .  S
C1758      C1759   1.400       .  A
C1759      C1760   1.401       .  A
C1759      H1764   1.083       .  S
C1760      C1761   1.415       .  A
C1760      H1765   1.074       .  S
C1761      C1762   1.417       .  A
C1762      H1766   1.069       .  S
C1763      C1768   1.401       .  A
C1763      C1772   1.403       .  A
C1768      C1769   1.398       .  A
C1768      H1773   1.083       .  S
C1769      C1770   1.406       .  A
C1769      H1774   1.084       .  S
C1770      C1771   1.404       .  A
C1771      C1772   1.398       .  A
C1771      H1775   1.082       .  S
C1772      H1776   1.083       .  S
C1777      C1778   1.408       .  A
C1777      C1782   1.403       .  A
C1777      H1787   1.085       .  S
C1778      C1783   1.494       .  S
C1778      C1779   1.401       .  A
C1779      C1780   1.393       .  A
C1779      H1784   1.079       .  S
C1780      C1781   1.417       .  A
C1780      H1785   1.078       .  S
C1781      C1782   1.415       .  A
C1782      H1786   1.079       .  S
C1783      C1788   1.402       .  A
C1783      C1792   1.410       .  A
C1788      C1789   1.395       .  A
C1788      H1793   1.081       .  S
C1789      C1790   1.416       .  A
C1789      H1794   1.086       .  S
C1790      C1791   1.409       .  A
C1791      C1792   1.400       .  A
C1791      H1795   1.079       .  S
C1792      H1796   1.083       .  S
C1797      C1798   1.405       .  A
C1797      C1802   1.409       .  A
C1797      H1807   1.083       .  S
C1798      C1803   1.495       .  S
C1798      C1799   1.403       .  A
C1799      C1800   1.397       .  A
C1799      H1804   1.083       .  S
C1800      C1801   1.413       .  A
C1800      H1805   1.082       .  S
C1801      C1802   1.418       .  A
C1802      H1806   1.079       .  S
C1803      C1808   1.406       .  A
C1803      C1812   1.401       .  A
C1808      C1809   1.410       .  A
C1808      H1813   1.083       .  S
C1809      C1810   1.416       .  A
C1809      H1814   1.083       .  S
C1810      C1811   1.417       .  A
C1811      C1812   1.395       .  A
C1811      H1815   1.079       .  S
C1812      H1816   1.083       .  S
C1817      C1818   1.402       .  A
C1817      C1822   1.400       .  A
C1817      H1827   1.083       .  S
C1818      C1823   1.483       .  S
C1818      C1819   1.399       .  A
C1819      C1820   1.400       .  A
C1819      H1824   1.083       .  S
C1820      C1821   1.418       .  A
C1820      H1825   1.078       .  S
C1821      C1822   1.415       .  A
C1822      H1826   1.083       .  S
C1823      C1828   1.402       .  A
C1823      C1832   1.400       .  A
C1828      C1829   1.399       .  A
C1828      H1833   1.083       .  S
C1829      C1830   1.414       .  A
C1829      H1834   1.082       .  S
C1830      C1831   1.419       .  A
C1831      C1832   1.400       .  A
C1831      H1835   1.078       .  S
C1832      H1836   1.084       .  S
C1837      C1838   1.397       .  A
C1837      C1842   1.398       .  A
C1837      H1847   1.084       .  S
C1838      C1843   1.483       .  S
C1838      C1839   1.402       .  A
C1839      C1840   1.408       .  A
C1839      H1844   1.083       .  S
C1840      C1841   1.416       .  A
C1840      H1845   1.083       .  S
C1841      C1842   1.418       .  A
C1842      H1846   1.079       .  S
C1843      C1848   1.400       .  A
C1843      C1852   1.402       .  A
C1848      C1849   1.399       .  A
C1848      H1853   1.083       .  S
C1849      C1850   1.415       .  A
C1849      H1854   1.083       .  S
C1850      C1851   1.416       .  A
C1851      C1852   1.405       .  A
C1851      H1855   1.080       .  S
C1852      H1856   1.083       .  S
C1857      C1858   1.401       .  A
C1857      C1862   1.397       .  A
C1857      H1867   1.083       .  S
C1858      C1863   1.492       .  S
C1858      C1859   1.408       .  A
C1859      C1860   1.401       .  A
C1859      H1864   1.082       .  S
C1860      C1861   1.411       .  A
C1860      H1865   1.083       .  S
C1861      C1862   1.417       .  A
C1862      H1866   1.081       .  S
C1863      C1868   1.410       .  A
C1863      C1872   1.399       .  A
C1868      C1869   1.405       .  A
C1868      H1873   1.083       .  S
C1869      C1870   1.412       .  A
C1869      H1874   1.080       .  S
C1870      C1871   1.415       .  A
C1871      C1872   1.393       .  A
C1871      H1875   1.083       .  S
C1872      H1876   1.082       .  S
C1877      C1878   1.407       .  A
C1877      C1882   1.395       .  A
C1877      H1887   1.082       .  S
C1878      C1883   1.498       .  S
C1878      C1879   1.411       .  A
C1879      C1880   1.407       .  A
C1879      H1884   1.082       .  S
C1880      C1881   1.406       .  A
C1880      H1885   1.083       .  S
C1881      C1882   1.404       .  A
C1882      H1886   1.083       .  S
C1883      C1888   1.409       .  A
C1883      C1892   1.409       .  A
C1888      C1889   1.399       .  A
C1888      H1893   1.083       .  S
C1889      C1890   1.404       .  A
C1889      H1894   1.083       .  S
C1890      C1891   1.406       .  A
C1891      C1892   1.404       .  A
C1891      H1895   1.083       .  S
C1892      H1896   1.082       .  S
C1897      C1898   1.407       .  A
C1897      C1902   1.396       .  A
C1897      H1907   1.082       .  S
C1898      C1903   1.487       .  S
C1898      C1899   1.407       .  A
C1899      C1900   1.396       .  A
C1899      H1904   1.082       .  S
C1900      C1901   1.402       .  A
C1900      H1905   1.083       .  S
C1901      C1902   1.402       .  A
C1902      H1906   1.083       .  S
C1903      C1908   1.407       .  A
C1903      C1912   1.408       .  A
C1908      C1909   1.394       .  A
C1908      H1913   1.082       .  S
C1909      C1910   1.403       .  A
C1909      H1914   1.083       .  S
C1910      C1911   1.403       .  A
C1911      C1912   1.398       .  A
C1911      H1915   1.083       .  S
C1912      H1916   1.083       .  S
C1917      C1918   1.398       .  A
C1917      C1922   1.393       .  A
C1917      H1927   1.084       .  S
C1918      C1923   1.483       .  S
C1918      C1919   1.404       .  A
C1919      C1920   1.406       .  A
C1919      H1924   1.083       .  S
C1920      C1921   1.415       .  A
C1920      H1925   1.083       .  S
C1921      C1922   1.416       .  A
C1922      H1926   1.081       .  S
C1923      C1928   1.404       .  A
C1923      C1932   1.405       .  A
C1928      C1929   1.402       .  A
C1928      H1933   1.083       .  S
C1929      C1930   1.407       .  A
C1929      H1934   1.083       .  S
C1930      C1931   1.404       .  A
C1931      C1932   1.400       .  A
C1931      H1935   1.083       .  S
C1932      H1936   1.083       .  S
C1937      C1938   1.409       .  A
C1937      C1942   1.403       .  A
C1937      H1947   1.083       .  S
C1938      C1943   1.494       .  S
C1938      C1939   1.408       .  A
C1939      C1940   1.396       .  A
C1939      H1944   1.082       .  S
C1940      C1941   1.403       .  A
C1940      H1945   1.083       .  S
C1941      C1942   1.405       .  A
C1942      H1946   1.083       .  S
C1943      C1948   1.408   1_565  A
C1943      C1952   1.408   1_565  A
C1948      C1949   1.400       .  A
C1948      H1953   1.082   1_545  S
C1949      C1950   1.406       .  A
C1949      H1954   1.083       .  S
C1950      C1951   1.403       .  A
C1951      C1952   1.399       .  A
C1951      H1955   1.083       .  S
C1952      H1956   1.082   1_545  S
C1957      C1958   1.407       .  A
C1957      C1962   1.395       .  A
C1957      H1967   1.083       .  S
C1958      C1963   1.484       .  S
C1958      C1959   1.406       .  A
C1959      C1960   1.395       .  A
C1959      H1964   1.082       .  S
C1960      C1961   1.402       .  A
C1960      H1965   1.083       .  S
C1961      C1962   1.403       .  A
C1962      H1966   1.083       .  S
C1963      C1968   1.408       .  A
C1963      C1972   1.406       .  A
C1968      C1969   1.395       .  A
C1968      H1973   1.082       .  S
C1969      C1970   1.402       .  A
C1969      H1974   1.083       .  S
C1970      C1971   1.403       .  A
C1971      C1972   1.395       .  A
C1971      H1975   1.083       .  S
C1972      H1976   1.083       .  S
C1977      C1978   1.405       .  A
C1977      C1982   1.399       .  A
C1977      H1987   1.082       .  S
C1978      C1983   1.483       .  S
C1978      C1979   1.405       .  A
C1979      C1980   1.397       .  A
C1979      H1984   1.083       .  S
C1980      C1981   1.405       .  A
C1980      H1985   1.083       .  S
C1981      C1982   1.403       .  A
C1982      H1986   1.083       .  S
C1983      C1988   1.403       .  A
C1983      C1992   1.400       .  A
C1988      C1989   1.400       .  A
C1988      H1993   1.083       .  S
C1989      C1990   1.415       .  A
C1989      H1994   1.083       .  S
C1990      C1991   1.416       .  A
C1991      C1992   1.394       .  A
C1991      H1995   1.079       .  S
C1992      H1996   1.083       .  S
C1997      C1998   1.409       .  A
C1997      C2002   1.399       .  A
C1997      H2007   1.083       .  S
C1998      C2003   1.491       .  S
C1998      C1999   1.406       .  A
C1999      C2000   1.400       .  A
C1999      H2004   1.083       .  S
C2000      C2001   1.406       .  A
C2000      H2005   1.083       .  S
C2001      C2002   1.402       .  A
C2002      H2006   1.083       .  S
C2003      C2008   1.405       .  A
C2003      C2012   1.409       .  A
C2008      C2009   1.395       .  A
C2008      H2013   1.083       .  S
C2009      C2010   1.405       .  A
C2009      H2014   1.083       .  S
C2010      C2011   1.405       .  A
C2011      C2012   1.404       .  A
C2011      H2015   1.083       .  S
C2012      H2016   1.083       .  S
C2017      C2018   1.411       .  A
C2017      C2022   1.407       .  A
C2017      H2027   1.083       .  S
C2018      C2023   1.497   1_655  S
C2018      C2019   1.407       .  A
C2019      C2020   1.395       .  A
C2019      H2024   1.082       .  S
C2020      C2021   1.403       .  A
C2020      H2025   1.083       .  S
C2021      C2022   1.406       .  A
C2022      H2026   1.083       .  S
C2023      C2028   1.408       .  A
C2023      C2032   1.409       .  A
C2028      C2029   1.403       .  A
C2028      H2033   1.082       .  S
C2029      C2030   1.405       .  A
C2029      H2034   1.083       .  S
C2030      C2031   1.404       .  A
C2031      C2032   1.400       .  A
C2031      H2035   1.083       .  S
C2032      H2036   1.083       .  S
C2037      C2038   1.409       .  A
C2037      C2042   1.398       .  A
C2037      H2047   1.081       .  S
C2038      C2043   1.495       .  S
C2038      C2039   1.410       .  A
C2039      C2040   1.396       .  A
C2039      H2044   1.081       .  S
C2040      C2041   1.401       .  A
C2040      H2045   1.083       .  S
C2041      C2042   1.403       .  A
C2042      H2046   1.083       .  S
C2043      C2048   1.409       .  A
C2043      C2052   1.410       .  A
C2048      C2049   1.396       .  A
C2048      H2053   1.081       .  S
C2049      C2050   1.401       .  A
C2049      H2054   1.083       .  S
C2050      C2051   1.402       .  A
C2051      C2052   1.398       .  A
C2051      H2055   1.084       .  S
C2052      H2056   1.082       .  S
C2057      C2058   1.409       .  A
C2057      C2062   1.398       .  A
C2057      H2067   1.082       .  S
C2058      C2063   1.492       .  S
C2058      C2059   1.408       .  A
C2059      C2060   1.398       .  A
C2059      H2064   1.082       .  S
C2060      C2061   1.403       .  A
C2060      H2065   1.083       .  S
C2061      C2062   1.402       .  A
C2062      H2066   1.083       .  S
C2063      C2068   1.408   1_565  A
C2063      C2072   1.408   1_565  A
C2068      C2069   1.400       .  A
C2068      H2073   1.082       .  S
C2069      C2070   1.404       .  A
C2069      H2074   1.083       .  S
C2070      C2071   1.403       .  A
C2071      C2072   1.397       .  A
C2071      H2075   1.083       .  S
C2072      H2076   1.082   1_545  S
C2077      C2078   1.407       .  A
C2077      C2082   1.397       .  A
C2077      H2087   1.082       .  S
C2078      C2083   1.483       .  S
C2078      C2079   1.405       .  A
C2079      C2080   1.395       .  A
C2079      H2084   1.083       .  S
C2080      C2081   1.403       .  A
C2080      H2085   1.083       .  S
C2081      C2082   1.403       .  A
C2082      H2086   1.083       .  S
C2083      C2088   1.407       .  A
C2083      C2092   1.406       .  A
C2088      C2089   1.398       .  A
C2088      H2093   1.083       .  S
C2089      C2090   1.404       .  A
C2089      H2094   1.083       .  S
C2090      C2091   1.402       .  A
C2091      C2092   1.394       .  A
C2091      H2095   1.083       .  S
C2092      H2096   1.082       .  S
C2097      C2098   1.408       .  A
C2097      C2102   1.400       .  A
C2097      H2107   1.083       .  S
C2098      C2103   1.489       .  S
C2098      C2099   1.406       .  A
C2099      C2100   1.397       .  A
C2099      H2104   1.083       .  S
C2100      C2101   1.404       .  A
C2100      H2105   1.083       .  S
C2101      C2102   1.403       .  A
C2102      H2106   1.083       .  S
C2103      C2108   1.406       .  A
C2103      C2112   1.408       .  A
C2108      C2109   1.397       .  A
C2108      H2113   1.083       .  S
C2109      C2110   1.405       .  A
C2109      H2114   1.083       .  S
C2110      C2111   1.403       .  A
C2111      C2112   1.400       .  A
C2111      H2115   1.083       .  S
C2112      H2116   1.082       .  S
C2117      C2118   1.402       .  A
C2117      C2122   1.406       .  A
C2117      H2127   1.083       .  S
C2118      C2123   1.483       .  S
C2118      C2119   1.398       .  A
C2119      C2120   1.398       .  A
C2119      H2124   1.084       .  S
C2120      C2121   1.418       .  A
C2120      H2125   1.078       .  S
C2121      C2122   1.416       .  A
C2122      H2126   1.083       .  S
C2123      C2128   1.402       .  A
C2123      C2132   1.399       .  A
C2128      C2129   1.405       .  A
C2128      H2133   1.082       .  S
C2129      C2130   1.415       .  A
C2129      H2134   1.078       .  S
C2130      C2131   1.417       .  A
C2131      C2132   1.398       .  A
C2131      H2135   1.083       .  S
C2132      H2136   1.083       .  S
C2137      C2138   1.403       .  A
C2137      C2142   1.396       .  A
C2137      H2147   1.083       .  S
C2138      C2143   1.478       .  S
C2138      C2139   1.398       .  A
C2139      C2140   1.398       .  A
C2139      H2144   1.083       .  S
C2140      C2141   1.417       .  A
C2140      H2145   1.078       .  S
C2141      C2142   1.413       .  A
C2142      H2146   1.083       .  S
C2143      C2148   1.395       .  A
C2143      C2152   1.405       .  A
C2148      C2149   1.390       .  A
C2148      H2153   1.083       .  S
C2149      C2150   1.417       .  A
C2149      H2154   1.081       .  S
C2150      C2151   1.413       .  A
C2151      C2152   1.404       .  A
C2151      H2155   1.079       .  S
C2152      H2156   1.083       .  S
C2157      C2158   1.406       .  A
C2157      C2162   1.403       .  A
C2157      H2167   1.083       .  S
C2158      C2163   1.482       .  S
C2158      C2159   1.403       .  A
C2159      C2160   1.395       .  A
C2159      H2164   1.083       .  S
C2160      C2161   1.405       .  A
C2160      H2165   1.083       .  S
C2161      C2162   1.405       .  A
C2162      H2166   1.083       .  S
C2163      C2168   1.402       .  A
C2163      C2172   1.400       .  A
C2168      C2169   1.401       .  A
C2168      H2173   1.083       .  S
C2169      C2170   1.416       .  A
C2169      H2174   1.083       .  S
C2170      C2171   1.415       .  A
C2171      C2172   1.394       .  A
C2171      H2175   1.079       .  S
C2172      H2176   1.083       .  S
C2177      C2178   1.406       .  A
C2177      C2182   1.402       .  A
C2177      H2187   1.083       .  S
C2178      C2183   1.497       .  S
C2178      C2179   1.405       .  A
C2179      C2180   1.401       .  A
C2179      H2184   1.082       .  S
C2180      C2181   1.414       .  A
C2180      H2185   1.082       .  S
C2181      C2182   1.415       .  A
C2182      H2186   1.080       .  S
C2183      C2188   1.403       .  A
C2183      C2192   1.409       .  A
C2188      C2189   1.397       .  A
C2188      H2193   1.083       .  S
C2189      C2190   1.414       .  A
C2189      H2194   1.083       .  S
C2190      C2191   1.412       .  A
C2191      C2192   1.406       .  A
C2191      H2195   1.080       .  S
C2192      H2196   1.082       .  S
C2197      C2198   1.405       .  A
C2197      C2202   1.405       .  A
C2197      H2207   1.083       .  S
C2198      C2203   1.481       .  S
C2198      C2199   1.397       .  A
C2199      C2200   1.390       .  A
C2199      H2204   1.083       .  S
C2200      C2201   1.417       .  A
C2200      H2205   1.082       .  S
C2201      C2202   1.413       .  A
C2202      H2206   1.079       .  S
C2203      C2208   1.400       .  A
C2203      C2212   1.402       .  A
C2208      C2209   1.401       .  A
C2208      H2213   1.083       .  S
C2209      C2210   1.417       .  A
C2209      H2214   1.080       .  S
C2210      C2211   1.412       .  A
C2211      C2212   1.395       .  A
C2211      H2215   1.083       .  S
C2212      H2216   1.083       .  S
C2217      C2218   1.397       .  A
C2217      C2222   1.390       .  A
C2217      H2227   1.083       .  S
C2218      C2223   1.471       .  S
C2218      C2219   1.401       .  A
C2219      C2220   1.400       .  A
C2219      H2224   1.083       .  S
C2220      C2221   1.413       .  A
C2220      H2225   1.082       .  S
C2221      C2222   1.414       .  A
C2222      H2226   1.081       .  S
C2223      C2228   1.402       .  A
C2223      C2232   1.403       .  A
C2228      C2229   1.397       .  A
C2228      H2233   1.083       .  S
C2229      C2230   1.405       .  A
C2229      H2234   1.083       .  S
C2230      C2231   1.403       .  A
C2231      C2232   1.396       .  A
C2231      H2235   1.083       .  S
C2232      H2236   1.083       .  S
C2237      C2238   1.400       .  A
C2237      C2242   1.394       .  A
C2237      H2247   1.083       .  S
C2238      C2243   1.492       .  S
C2238      C2239   1.410       .  A
C2239      C2240   1.402       .  A
C2239      H2244   1.082       .  S
C2240      C2241   1.409       .  A
C2240      H2245   1.080       .  S
C2241      C2242   1.415       .  A
C2242      H2246   1.083       .  S
C2243      C2248   1.409       .  A
C2243      C2252   1.401       .  A
C2248      C2249   1.402       .  A
C2248      H2253   1.082       .  S
C2249      C2250   1.411       .  A
C2249      H2254   1.083       .  S
C2250      C2251   1.417       .  A
C2251      C2252   1.394       .  A
C2251      H2255   1.080       .  S
C2252      H2256   1.083       .  S
