geometry optimzed in LAMMPS
_audit_creation_date              2020-11-30 
_audit_creation_method            'lammps2cif' 
_symmetry_space_group_name_H-M    'P1' 
_symmetry_Int_Tables_number       1 
_symmetry_cell_setting            triclinic 
loop_ 
_symmetry_equiv_pos_as_xyz 
  x,y,z 
_cell_length_a                    33.87808351 
_cell_length_b                    32.93175884673279 
_cell_length_c                    35.541168013764015 
_cell_angle_alpha                 90.17431099555374 
_cell_angle_beta                  89.60088450642962 
_cell_angle_gamma                 121.47338168898067 
loop_ 
_atom_site_label 
_atom_site_type_symbol 
_atom_site_fract_x 
_atom_site_fract_y 
_atom_site_fract_z 
_atom_site_charge 
Zn1        Zn  0.27026020  0.07965995  0.82657340     1.49700
Zn2        Zn  0.17694050  0.07415993  0.80567951     1.49400
Zn3        Zn  0.21712453  0.10196151  0.89142497     1.49100
Zn4        Zn  0.26881661  0.17559989  0.82406268     1.49500
O5          O  0.23301119  0.10783662  0.83710555    -1.80500
O6          O  0.23404947  0.01829726  0.79699728    -0.71100
O7          O  0.12056505  0.04701342  0.83909851    -0.70900
O8          O  0.24238801  0.06628769  0.91958626    -0.70400
O9          O  0.17183592  0.01745317  0.77652172    -0.71100
O10         O  0.28636705  0.06075251  0.87545432    -0.70700
O11         O  0.14817953  0.06464353  0.89738522    -0.71300
O12         O  0.27917329  0.21731770  0.86990309    -0.70700
O13         O  0.17247619  0.12054723  0.77116833    -0.71400
O14         O  0.24032483  0.16710418  0.91664712    -0.70800
O15         O  0.23545409  0.19054343  0.78462371    -0.71300
O16         O  0.33108163  0.19408808  0.80237175    -0.71200
O17         O  0.32963352  0.12582763  0.79827662    -0.71000
C18         C  0.19648421  0.99857284  0.77847131     0.80800
C19         C  0.11442299  0.04590703  0.87451794     0.81300
C20         C  0.27106929  0.05440823  0.90918388     0.80300
C21         C  0.26532803  0.20948252  0.90408785     0.80600
C22         C  0.19779582  0.16552865  0.76671721     0.81800
C23         C  0.34957683  0.17053690  0.79260011     0.80800
C24         C  0.12125898  0.21007785  0.72524937     0.01200
C25         C  0.35019666  0.01370178  0.95065934     0.01200
Zn26       Zn  0.29131413  0.25626020  0.51205112     1.49700
Zn27       Zn  0.04936002  0.02171504  0.52760246     1.49400
Zn28       Zn  0.34204871  0.99638961  0.45299276     1.49100
Zn29       Zn  0.29950918  0.02673613  0.52284978     1.49500
O30         O  0.33924005  0.00207588  0.50867202    -1.80500
O31         O  0.01859394  0.26276567  0.55740632    -0.71100
O32         O  0.10309149  0.05339486  0.49117452    -0.70900
O33         O  0.29342813  0.27175376  0.41784539    -0.70400
O34         O  0.08289809  0.31771839  0.52864379    -0.71100
O35         O  0.27092321  0.21927490  0.46452870    -0.70700
O36         O  0.07506251  0.03137873  0.43314003    -0.71300
O37         O  0.27972087  0.04695425  0.47518796    -0.71000
O38         O  0.05360241  0.07499417  0.56136657    -0.71400
O39         O  0.31222836  0.02932540  0.42809484    -0.70800
O40         O  0.99159245  0.07528446  0.54155376    -0.71300
O41         O  0.23628122  0.30159828  0.55968703    -0.71200
O42         O  0.23509682  0.23540741  0.54416995    -0.71000
C43         C  0.06214227  0.28342149  0.55170508     0.80800
C44         C  0.10901672  0.05360438  0.45569011     0.81300
C45         C  0.27327010  0.22887476  0.42967257     0.80300
C46         C  0.28880207  0.04697938  0.44012425     0.80600
C47         C  0.02864783  0.09364148  0.56072601     0.81800
C48         C  0.21781995  0.25646289  0.56147744     0.80800
C49         C  0.21989356  0.09892668  0.39450546     0.01200
C50         C  0.10183747  0.21459384  0.61602049     0.01200
Zn51       Zn  0.11916464  0.27464566  0.15461210     1.49700
Zn52       Zn  0.13354739  0.18508374  0.15538786     1.49400
Zn53       Zn  0.07983584  0.20110195  0.22447418     1.49100
Zn54       Zn  0.03381478  0.17053633  0.14187639     1.49500
O55         O  0.09191542  0.20781874  0.16929276    -1.80500
O56         O  0.18108042  0.29935072  0.12970296    -0.71100
O57         O  0.15210683  0.16331952  0.20297876    -0.70900
O58         O  0.10480473  0.26595789  0.24970774    -0.70400
O59         O  0.19062297  0.23738207  0.12757962    -0.71100
O60         O  0.13042723  0.31516997  0.20055351    -0.70700
O61         O  0.10872151  0.16672996  0.24888295    -0.71300
O62         O  0.98056803  0.14300148  0.17857438    -0.70700
O63         O  0.10124283  0.12807937  0.11967761    -0.71400
O64         O  0.01120458  0.16372215  0.23575369    -0.70800
O65         O  0.03158270  0.11771252  0.11172613    -0.71300
O66         O  0.02279512  0.21008219  0.10518675    -0.71200
O67         O  0.07877745  0.28423499  0.11747590    -0.71000
C68         C  0.20437709  0.28072062  0.12005368     0.80800
C69         C  0.13776824  0.15592657  0.23716666     0.81300
C70         C  0.12366794  0.30772592  0.23583809     0.80300
C71         C  0.97625318  0.14349260  0.21417588     0.80600
C72         C  0.06100923  0.10560748  0.10510018     0.81800
C73         C  0.04229066  0.25460694  0.09962533     0.80800
C74         C  0.99369235  0.32927184  0.05986750     0.01200
C75         C  0.21523863  0.11373728  0.28374019     0.01200
C76         C  0.26360395  0.29549792  0.07177953    -0.12800
C77         C  0.24902296  0.31125140  0.10067760    -0.27900
H78         H  0.24070354  0.25909418  0.06225325     0.16300
H79         H  0.26976443  0.34755306  0.11076267     0.16800
C80         C  0.04751336  0.06301288  0.08167183    -0.12800
C81         C  0.00560497  0.03818271  0.06495245    -0.27900
H82         H  0.07113991  0.05014247  0.08094774     0.16300
H83         H  0.98538792  0.05504464  0.06356541     0.16800
C84         C  0.02768067  0.31567587  0.07503034    -0.12800
C85         C  0.01974931  0.27120218  0.07334384    -0.27900
H86         H  0.05585240  0.34100127  0.09283535     0.16300
H87         H  0.99074631  0.24455267  0.05691479     0.16800
C88         C  0.15405792  0.13295887  0.26379930    -0.12800
C89         C  0.19750423  0.14153850  0.26204527    -0.27900
H90         H  0.12997553  0.10831842  0.28469474     0.16300
H91         H  0.22088525  0.16824492  0.24180798     0.16800
C92         C  0.18111296  0.04890086  0.23532341    -0.12800
C93         C  0.18638369  0.06099841  0.27189792    -0.27900
H94         H  0.19840849  0.07739730  0.21473124     0.16300
H95         H  0.16901083  0.03325734  0.29301946     0.16800
C96         C  0.26706987  0.13848399  0.27338867    -0.12800
C97         C  0.28611722  0.11971943  0.25132432    -0.27900
H98         H  0.28794734  0.17639082  0.27953594     0.16300
H99         H  0.26684610  0.08235044  0.24404689     0.16800
C100        C  0.22540731  0.09746936  0.35162205    -0.12800
C101        C  0.21080693  0.11758989  0.32632740    -0.27900
H102        H  0.24051499  0.07766932  0.34069934     0.16300
H103        H  0.19383901  0.13580522  0.33640419     0.16800
C104        C  0.16957621  0.08122935  0.40522374    -0.12800
C105        C  0.15716871  0.07926592  0.44166977    -0.27900
H106        H  0.14305926  0.06665834  0.38366823     0.16300
H107        H  0.18409367  0.09428718  0.46290503     0.16800
C108        C  0.25093218  0.18833454  0.40320300    -0.12800
C109        C  0.25183048  0.14873627  0.41084962    -0.27900
H110        H  0.23076614  0.18973582  0.38036867     0.16300
H111        H  0.27456985  0.15148009  0.43353043     0.16800
C112        C  0.27447573  0.07080012  0.41280634    -0.12800
C113        C  0.23223110  0.06528742  0.41414740    -0.27900
H114        H  0.30019139  0.09583874  0.39300638     0.16300
H115        H  0.20693484  0.03788731  0.43297180     0.16800
C116        C  0.17359550  0.22617646  0.58160270    -0.12800
C117        C  0.15273855  0.24352238  0.60302530    -0.27900
H118        H  0.15635453  0.18844372  0.57554845     0.16300
H119        H  0.17177501  0.28141917  0.60933198     0.16800
C120        C  0.04329731  0.13947210  0.57981747    -0.12800
C121        C  0.07856504  0.16147176  0.60461236    -0.27900
H122        H  0.02563210  0.15701105  0.57017311     0.16300
H123        H  0.09412488  0.14189938  0.61470334     0.16800
C124        C  0.07494755  0.23616188  0.59932770    -0.12800
C125        C  0.09035984  0.26760061  0.57065906    -0.27900
H126        H  0.03992982  0.22238481  0.60975924     0.16300
H127        H  0.12481564  0.28172788  0.55909163     0.16800
C128        C  0.35041976  0.01445493  0.99359918    -0.12800
C129        C  0.99049397  0.32730761  0.01658376    -0.27900
H130        H  0.04622637  0.02479392  0.99754153     0.16300
H131        H  0.27219890  0.30162988  0.99895019     0.16800
C132        C  0.10107240  0.21943182  0.65871673    -0.12800
C133        C  0.12131586  0.20405478  0.68259244    -0.27900
H134        H  0.08393832  0.23676362  0.67060144     0.16300
H135        H  0.13776029  0.18592321  0.67090143     0.16800
C136        C  0.32247045  0.28871823  0.92790625    -0.12800
C137        C  0.27874622  0.25106470  0.92920397    -0.27900
H138        H  0.34663178  0.28343460  0.91141920     0.16300
H139        H  0.25247547  0.25194556  0.94614425     0.16800
C140        C  0.06685647  0.02430928  0.88902589    -0.12800
C141        C  0.05756000  0.02092552  0.92616508    -0.27900
H142        H  0.03921045  0.01411953  0.86889929     0.16300
H143        H  0.08565366  0.03025081  0.94564875     0.16800
C144        C  0.28652371  0.03130933  0.93606703    -0.12800
C145        C  0.33095872  0.04330169  0.93517839    -0.27900
H146        H  0.26098281  0.00158351  0.95286212     0.16300
H147        H  0.35449226  0.07507005  0.91906257     0.16800
C148        C  0.13838146  0.18015486  0.74383232    -0.12800
C149        C  0.18227711  0.19013122  0.74175129    -0.27900
H150        H  0.11442329  0.15065301  0.76186987     0.16300
H151        H  0.20807406  0.22078589  0.72581602     0.16800
C152        C  0.06442892  0.19723711  0.77609860    -0.12800
C153        C  0.07205301  0.19049137  0.74006870    -0.27900
H154        H  0.42423745  0.21822334  0.79759137     0.16300
H155        H  0.04267604  0.16988339  0.72160347     0.16800
C156        C  0.15310903  0.26262467  0.73656993    -0.12800
C157        C  0.14019124  0.29517901  0.73802376    -0.27900
H158        H  0.18596648  0.27252489  0.74934365     0.16300
H159        H  0.19242324  0.93032717  0.77568549     0.16800
Zn160      Zn  0.25738142  0.40804652  0.79956307     1.49700
Zn161      Zn  0.17488757  0.42663215  0.79844571     1.49400
Zn162      Zn  0.23622391  0.44855413  0.87708590     1.49100
Zn163      Zn  0.27887902  0.51332345  0.80073900     1.49500
O164        O  0.23649752  0.44908617  0.81994781    -1.80500
O165        O  0.20807512  0.35239247  0.77061822    -0.71100
O166        O  0.13013136  0.40932041  0.84182372    -0.70900
O167        O  0.26386870  0.40743647  0.89615224    -0.70400
O168        O  0.15100253  0.36639861  0.76615896    -0.71100
O169        O  0.27580017  0.38177126  0.84165247    -0.70700
O170        O  0.16750465  0.42059515  0.89601521    -0.71300
O171        O  0.30737114  0.55764854  0.84425161    -0.70700
O172        O  0.17324622  0.47820137  0.76754170    -0.71400
O173        O  0.27734448  0.51846000  0.89793686    -0.70800
O174        O  0.24569251  0.53914652  0.77117162    -0.71300
O175        O  0.33021244  0.51744032  0.76800968    -0.71200
O176        O  0.31305315  0.44266686  0.76519174    -0.71000
C177        C  0.16808614  0.34066546  0.75894128     0.80800
C178        C  0.13017067  0.40769433  0.87767586     0.81300
C179        C  0.27762230  0.38359926  0.87736388     0.80300
C180        C  0.30379682  0.55721780  0.87993938     0.80600
C181        C  0.20414319  0.52141467  0.76029309     0.81800
C182        C  0.33882736  0.48625298  0.75618584     0.80800
C183        C  0.12671196  0.56551103  0.71806117     0.01200
C184        C  0.34074706  0.33923955  0.94364674     0.01200
Zn185      Zn  0.28827643  0.58499267  0.50473229     1.49700
Zn186      Zn  0.06390313  0.35891066  0.50390190     1.49400
Zn187      Zn  0.32860005  0.33544107  0.44649535     1.49100
Zn188      Zn  0.28980625  0.35075032  0.52680106     1.49500
O189        O  0.32246174  0.32363034  0.50188212    -1.80500
O190        O  0.99365338  0.57860006  0.55717331    -0.71100
O191        O  0.10118005  0.38286115  0.45584866    -0.70900
O192        O  0.31031908  0.59678516  0.41004922    -0.70400
O193        O  0.06036800  0.64641163  0.56734003    -0.71100
O194        O  0.27226951  0.54515730  0.45647030    -0.70700
O195        O  0.04860292  0.35098485  0.41054278    -0.71300
O196        O  0.26344363  0.37247139  0.48679471    -0.71000
O197        O  0.08074832  0.41187887  0.54052252    -0.71400
O198        O  0.29695915  0.37259172  0.43244745    -0.70800
O199        O  0.01672445  0.41476812  0.54705301    -0.71300
O200        O  0.24065861  0.64634540  0.53753486    -0.71200
O201        O  0.22878457  0.57342090  0.53043912    -0.71000
C202        C  0.03302623  0.60185218  0.57309815     0.80800
C203        C  0.09052150  0.37606870  0.42112956     0.81300
C204        C  0.28442372  0.55418410  0.42185182     0.80300
C205        C  0.27032812  0.38160476  0.45174498     0.80600
C206        C  0.05891289  0.42981733  0.55521621     0.81800
C207        C  0.21564115  0.60134352  0.54194385     0.80800
C208        C  0.21268485  0.42579860  0.38079195     0.01200
C209        C  0.10634765  0.55038866  0.60724688     0.01200
Zn210      Zn  0.12338623  0.62108896  0.13931713     1.49700
Zn211      Zn  0.14035074  0.53505031  0.14786424     1.49400
Zn212      Zn  0.10415958  0.56674037  0.21990894     1.49100
Zn213      Zn  0.03839697  0.51521126  0.14880381     1.49500
O214        O  0.10177129  0.55997619  0.16428887    -1.80500
O215        O  0.17819155  0.63857772  0.10446379    -0.71100
O216        O  0.16035462  0.51194734  0.19259410    -0.70900
O217        O  0.13172429  0.63640896  0.23551727    -0.70400
O218        O  0.19554276  0.58380697  0.11801062    -0.71100
O219        O  0.14295944  0.67186398  0.17977844    -0.70700
O220        O  0.14295354  0.54162987  0.24204651    -0.71300
O221        O  0.99847197  0.48194439  0.19434029    -0.70700
O222        O  0.10677126  0.48065897  0.11178254    -0.71400
O223        O  0.03920188  0.52610988  0.24326622    -0.70800
O224        O  0.03489124  0.46576993  0.11270051    -0.71300
O225        O  0.01144834  0.54953247  0.12221174    -0.71200
O226        O  0.07246335  0.62090733  0.10888981    -0.71000
C227        C  0.20396801  0.62123663  0.10047316     0.80800
C228        C  0.16035541  0.51866773  0.22798210     0.81300
C229        C  0.14467688  0.67362970  0.21569304     0.80300
C230        C  0.00194915  0.49184588  0.22931077     0.80600
C231        C  0.06510551  0.45679120  0.10074542     0.81800
C232        C  0.02922871  0.59032464  0.10678376     0.80800
C233        C  0.98407604  0.66184309  0.05240949     0.01200
C234        C  0.20058848  0.43714850  0.27023824     0.01200
C235        C  0.27762705  0.63401027  0.07478131    -0.12800
C236        C  0.24482467  0.64557720  0.07517772    -0.27900
H237        H  0.27169935  0.60412492  0.09211412     0.16300
H238        H  0.24918936  0.67505939  0.05827654     0.16800
C239        C  0.05173909  0.41632807  0.07509544    -0.12800
C240        C  0.00797426  0.37897682  0.07454909    -0.27900
H241        H  0.07922826  0.41386129  0.06159050     0.16300
H242        H  0.98257178  0.38271534  0.09056295     0.16800
C243        C  0.01223403  0.63904630  0.06363673    -0.12800
C244        C  0.99782914  0.60280148  0.08850639    -0.27900
H245        H  0.04773682  0.65641897  0.05342424     0.16300
H246        H  0.96229586  0.58295941  0.09838288     0.16800
C247        C  0.18155460  0.49982725  0.25333849    -0.12800
C248        C  0.17401156  0.45566813  0.24883870    -0.27900
H249        H  0.20368376  0.52241432  0.27588058     0.16300
H250        H  0.14982010  0.43313838  0.22718016     0.16800
C251        C  0.13899751  0.34943672  0.26058389    -0.12800
C252        C  0.18303348  0.38587326  0.25780032    -0.27900
H253        H  0.11360420  0.35286595  0.27678634     0.16300
H254        H  0.20683592  0.37889870  0.24245981     0.16800
C255        C  0.25148391  0.46710530  0.25826863    -0.12800
C256        C  0.26380225  0.46844895  0.22182634    -0.27900
H257        H  0.27810270  0.48564853  0.27939505     0.16300
H258        H  0.23687193  0.45060438  0.20080660     0.16800
C259        C  0.21713731  0.42687292  0.33760160    -0.12800
C260        C  0.19524222  0.43967859  0.31306730    -0.27900
H261        H  0.23907877  0.41527471  0.32527215     0.16300
H262        H  0.17351479  0.45229995  0.32374465     0.16800
C263        C  0.16281387  0.38993390  0.39350292    -0.12800
C264        C  0.12818905  0.39882568  0.39300124    -0.27900
H265        H  0.15663086  0.35902198  0.40956687     0.16300
H266        H  0.13197723  0.42918529  0.37786127     0.16800
C267        C  0.26947130  0.51392716  0.39512356    -0.12800
C268        C  0.22740913  0.47425703  0.39855459    -0.27900
H269        H  0.29392154  0.51566633  0.37430822     0.16300
H270        H  0.20385129  0.47550862  0.41882581     0.16800
C271        C  0.24559571  0.40278920  0.43434399    -0.12800
C272        C  0.24377163  0.40892731  0.39706110    -0.27900
H273        H  0.22556800  0.41140306  0.45317086     0.16300
H274        H  0.26364816  0.39997146  0.37838659     0.16800
C275        C  0.16823611  0.58102504  0.55699818    -0.12800
C276        C  0.15663808  0.57125812  0.59373970    -0.27900
H277        H  0.14165326  0.57457569  0.53680052     0.16300
H278        H  0.18329654  0.57761561  0.61386858     0.16800
C279        C  0.08419084  0.46932772  0.58207075    -0.12800
C280        C  0.07531237  0.50440359  0.58522230    -0.27900
H281        H  0.11393695  0.47253047  0.59636883     0.16300
H282        H  0.04730949  0.50150799  0.56836538     0.16800
C283        C  0.09196037  0.58648663  0.59799533    -0.12800
C284        C  0.04747746  0.57501003  0.59696884    -0.27900
H285        H  0.11809087  0.62056815  0.58606023     0.16300
H286        H  0.02052852  0.54043485  0.60742960     0.16800
C287        C  0.34346183  0.34004193  0.98697516    -0.12800
C288        C  0.97978799  0.66118604  0.00922588    -0.27900
H289        H  0.06103735  0.37218293  0.00599418     0.16300
H290        H  0.28290547  0.63642067  0.00029884     0.16800
C291        C  0.10225706  0.53954861  0.64969592    -0.12800
C292        C  0.12483697  0.57404415  0.67571658    -0.27900
H293        H  0.08164014  0.50279797  0.65912934     0.16300
H294        H  0.14431754  0.61042231  0.66530087     0.16800
C295        C  0.32980927  0.61684068  0.93464267    -0.12800
C296        C  0.33048878  0.60479016  0.89819088    -0.27900
H297        H  0.31124369  0.58921028  0.95562460     0.16300
H298        H  0.34998397  0.63375443  0.87837080     0.16800
C299        C  0.08405363  0.38788592  0.89638039    -0.12800
C300        C  0.07506213  0.38409519  0.93385688    -0.27900
H301        H  0.05458431  0.37249159  0.87750839     0.16300
H302        H  0.10429021  0.39979459  0.95293478     0.16800
C303        C  0.29723982  0.35694764  0.89500016    -0.12800
C304        C  0.31216358  0.36096385  0.93068801    -0.27900
H305        H  0.30218068  0.33419781  0.87590554     0.16300
H306        H  0.30662850  0.38297151  0.95025977     0.16800
C307        C  0.15077583  0.53715555  0.72404050    -0.12800
C308        C  0.19136364  0.55344616  0.74197083    -0.27900
H309        H  0.13100809  0.49957566  0.71665841     0.16300
H310        H  0.21418514  0.59130210  0.74690819     0.16800
C311        C  0.05083372  0.55189732  0.74519237    -0.12800
C312        C  0.07813993  0.53507944  0.73532513    -0.27900
H313        H  0.38720279  0.47302342  0.72410042     0.16300
H314        H  0.06772760  0.49950391  0.74500550     0.16800
C315        C  0.15209016  0.61437673  0.73781868    -0.12800
C316        C  0.15722617  0.61960909  0.77535839    -0.27900
H317        H  0.16540058  0.64660430  0.72110516     0.16300
H318        H  0.10659535  0.28621491  0.72744922     0.16800
Zn319      Zn  0.26950548  0.74617055  0.82795797     1.49700
Zn320      Zn  0.17738685  0.75293637  0.82254931     1.49400
Zn321      Zn  0.24552928  0.79428017  0.89523083     1.49100
Zn322      Zn  0.27792587  0.84516716  0.81277167     1.49500
O323        O  0.24218162  0.78442494  0.83985023    -1.80500
O324        O  0.22259415  0.68412303  0.80399726    -0.71100
O325        O  0.13348888  0.73731798  0.86796136    -0.70900
O326        O  0.28326179  0.76939521  0.92139545    -0.70400
O327        O  0.16019665  0.68971702  0.79698648    -0.71100
O328        O  0.29308704  0.73084928  0.87447196    -0.70700
O329        O  0.17996659  0.75832521  0.91768493    -0.71300
O330        O  0.29802337  0.89843417  0.84970971    -0.70700
O331        O  0.16839436  0.79490815  0.78465519    -0.71400
O332        O  0.27527147  0.86542143  0.90656117    -0.70800
O333        O  0.24028959  0.85490098  0.77467604    -0.71300
O334        O  0.33325453  0.85220170  0.78432210    -0.71200
O335        O  0.32465407  0.78123260  0.79285354    -0.71000
C336        C  0.18126283  0.66714686  0.79287446     0.80800
C337        C  0.13954956  0.73941943  0.90358205     0.81300
C338        C  0.29783830  0.74307910  0.90897125     0.80300
C339        C  0.29437196  0.90194478  0.88507568     0.80600
C340        C  0.19731028  0.83365027  0.76779281     0.81800
C341        C  0.34637133  0.82281812  0.77857355     0.80800
C342        C  0.12295696  0.87878937  0.72126682     0.01200
C343        C  0.35221960  0.67004213  0.94522399     0.01200
Zn344      Zn  0.31538939  0.94011687  0.53190136     1.49700
Zn345      Zn  0.05487234  0.69455870  0.53484258     1.49400
Zn346      Zn  0.33925846  0.66149078  0.43615145     1.49100
Zn347      Zn  0.30159952  0.69002154  0.51028183     1.49500
O348        O  0.32822068  0.65291618  0.49154531    -1.80500
O349        O  0.00144040  0.90434611  0.53151646    -0.71100
O350        O  0.10690258  0.72188808  0.49616576    -0.70900
O351        O  0.30821612  0.92513900  0.43613130    -0.70400
O352        O  0.05738742  0.97235725  0.55622545    -0.71100
O353        O  0.29328663  0.88949265  0.49199857    -0.70700
O354        O  0.07514032  0.71550422  0.44015980    -0.71300
O355        O  0.28562352  0.71792963  0.46578360    -0.71000
O356        O  0.06362805  0.75011479  0.56734284    -0.71400
O357        O  0.31255560  0.70031563  0.41482404    -0.70800
O358        O  0.99432371  0.74210412  0.56737773    -0.71300
O359        O  0.24460293  0.97788993  0.55328248    -0.71200
O360        O  0.26238869  0.92353255  0.56701456    -0.71000
C361        C  0.03760327  0.92734393  0.55142685     0.80800
C362        C  0.11069919  0.72880656  0.46066799     0.81300
C363        C  0.29164407  0.88738206  0.45621015     0.80300
C364        C  0.29207419  0.71957579  0.43021552     0.80600
C365        C  0.03622335  0.76375266  0.57786079     0.81800
C366        C  0.23673607  0.94080931  0.57115781     0.80800
C367        C  0.21895183  0.77272531  0.39366024     0.01200
C368        C  0.11426236  0.89487227  0.61142488     0.01200
Zn369      Zn  0.12651506  0.94908474  0.14612366     1.49700
Zn370      Zn  0.13524634  0.86046479  0.15618859     1.49400
Zn371      Zn  0.08994275  0.89159092  0.22229085     1.49100
Zn372      Zn  0.03927365  0.85242799  0.13987901     1.49500
O373        O  0.09720130  0.88693212  0.16752946    -1.80500
O374        O  0.17082162  0.95824619  0.10532226    -0.71100
O375        O  0.15572916  0.84415201  0.20460187    -0.70900
O376        O  0.12818849  0.96315562  0.23912414    -0.70400
O377        O  0.18902325  0.90499164  0.12197532    -0.71100
O378        O  0.15953014  0.99803069  0.18431491    -0.70700
O379        O  0.11483503  0.85368251  0.24953760    -0.71300
O380        O  0.98864655  0.83129581  0.17779048    -0.70700
O381        O  0.09795946  0.79914634  0.12701062    -0.71400
O382        O  0.01990728  0.86180410  0.23378995    -0.70800
O383        O  0.03282519  0.79585694  0.11156805    -0.71300
O384        O  0.02753076  0.89323067  0.10465490    -0.71200
O385        O  0.08085523  0.96352123  0.12703091    -0.71000
C386        C  0.19577172  0.94013949  0.10178193     0.80800
C387        C  0.14205879  0.83973350  0.23878570     0.81300
C388        C  0.15494181  0.00035583  0.21950975     0.80300
C389        C  0.98461990  0.83844268  0.21245259     0.80600
C390        C  0.05911586  0.77891897  0.11026622     0.81800
C391        C  0.04413061  0.93757820  0.10879377     0.80800
C392        C  0.98222539  0.98646665  0.05040620     0.01200
C393        C  0.21035044  0.78468642  0.28192197     0.01200
C394        C  0.26938941  0.95445958  0.07599031    -0.12800
C395        C  0.23476774  0.96294149  0.07498597    -0.27900
H396        H  0.26477394  0.92514760  0.09341712     0.16300
H397        H  0.23807695  0.99164216  0.05759185     0.16800
C398        C  0.04393519  0.73353606  0.09069017    -0.12800
C399        C  0.00850399  0.71380636  0.06600563    -0.27900
H400        H  0.06108446  0.71497931  0.09909404     0.16300
H401        H  0.99304105  0.73423467  0.05781967     0.16800
C402        C  0.00966843  0.96297826  0.06018416    -0.12800
C403        C  0.01832437  0.95904248  0.09635701    -0.27900
H404        H  0.02134810  0.94848831  0.03824653     0.16300
H405        H  0.00800002  0.97490869  0.11818417     0.16800
C406        C  0.15639051  0.81533311  0.26587578    -0.12800
C407        C  0.19715670  0.81748375  0.26183718    -0.27900
H408        H  0.13209323  0.79299935  0.28763194     0.16300
H409        H  0.22131907  0.84242979  0.24105268     0.16800
C410        C  0.16266726  0.72086863  0.23350482    -0.12800
C411        C  0.17883216  0.73243464  0.26918695    -0.27900
H412        H  0.16677181  0.74867551  0.21462399     0.16300
H413        H  0.17666576  0.70458887  0.28700153     0.16800
C414        C  0.26058494  0.80133597  0.27034164    -0.12800
C415        C  0.27238891  0.80041123  0.23397810    -0.27900
H416        H  0.28760839  0.81631979  0.29147512     0.16300
H417        H  0.24566698  0.78630858  0.21281133     0.16800
C418        C  0.21989991  0.76720089  0.35045779    -0.12800
C419        C  0.20741405  0.78921607  0.32506353    -0.27900
H420        H  0.23171243  0.74448823  0.33946026     0.16300
H421        H  0.19562361  0.81203721  0.33582840     0.16800
C422        C  0.16894392  0.75447350  0.40721487    -0.12800
C423        C  0.15819315  0.75234597  0.44429724    -0.27900
H424        H  0.14115990  0.74033314  0.38676175     0.16300
H425        H  0.18589984  0.76532466  0.46463602     0.16800
C426        C  0.26983410  0.83891771  0.43953471    -0.12800
C427        C  0.25021087  0.82565283  0.40510362    -0.27900
H428        H  0.26630577  0.81162551  0.45872715     0.16300
H429        H  0.25130546  0.85278123  0.38705391     0.16800
C430        C  0.27630205  0.74555719  0.40647666    -0.12800
C431        C  0.23506124  0.74164858  0.41267779    -0.27900
H432        H  0.29899077  0.76864200  0.38423236     0.16300
H433        H  0.21245035  0.71572891  0.43364045     0.16800
C434        C  0.19601529  0.91569462  0.59627125    -0.12800
C435        C  0.16405053  0.92817262  0.59804292    -0.27900
H436        H  0.18941115  0.88309396  0.60961899     0.16300
H437        H  0.17211133  0.96087707  0.58377114     0.16800
C438        C  0.05337868  0.80730297  0.60085272    -0.12800
C439        C  0.09640171  0.84477168  0.59550109    -0.27900
H440        H  0.02888289  0.81154114  0.61769240     0.16300
H441        H  0.11875353  0.83976496  0.57644706     0.16800
C442        C  0.08772005  0.91749475  0.59624573    -0.12800
C443        C  0.05703204  0.90038912  0.56791673    -0.27900
H444        H  0.09755700  0.95224672  0.60761006     0.16300
H445        H  0.04634731  0.86623147  0.55524810     0.16800
C446        C  0.35418637  0.67744791  0.98797936    -0.12800
C447        C  0.97555342  0.98544274  0.00794133    -0.27900
H448        H  0.05050816  0.70634222  0.99771495     0.16300
H449        H  0.27895903  0.96648018  0.00239195     0.16800
C450        C  0.11066102  0.89455146  0.65440776    -0.12800
C451        C  0.12834406  0.87648159  0.67853182    -0.27900
H452        H  0.09170837  0.90974937  0.66669658     0.16300
H453        H  0.14599984  0.85940459  0.66736909     0.16800
C454        C  0.32335728  0.96195072  0.93670118    -0.12800
C455        C  0.31302868  0.95032421  0.90026145    -0.27900
H456        H  0.31477073  0.93355915  0.95673657     0.16300
H457        H  0.31998367  0.97769796  0.87991949     0.16800
C458        C  0.09861720  0.71612309  0.92917964    -0.12800
C459        C  0.06090951  0.71960210  0.92441139    -0.27900
H460        H  0.09790511  0.69213558  0.95044713     0.16300
H461        H  0.06365089  0.74566380  0.90415620     0.16800
C462        C  0.32142713  0.72653694  0.93458993    -0.12800
C463        C  0.32364561  0.68788267  0.92547632    -0.27900
H464        H  0.33737132  0.74623221  0.96019737     0.16300
H465        H  0.30569008  0.66904448  0.90004655     0.16800
C466        C  0.13869613  0.84885210  0.74209326    -0.12800
C467        C  0.18174298  0.85669205  0.74077171    -0.27900
H468        H  0.11409603  0.82086332  0.76093401     0.16300
H469        H  0.20757453  0.88527194  0.72313445     0.16800
C470        C  0.05292863  0.87400235  0.75269834    -0.12800
C471        C  0.07122718  0.85442931  0.73080104    -0.27900
H472        H  0.40484516  0.81646259  0.76198258     0.16300
H473        H  0.04927162  0.81730199  0.72262322     0.16800
C474        C  0.14921903  0.93179173  0.73361910    -0.12800
C475        C  0.18020898  0.95091663  0.76186607    -0.27900
H476        H  0.13883090  0.95449027  0.72039822     0.16300
H477        H  0.14544364  0.58865283  0.79326698     0.16800
Zn478      Zn  0.60088165  0.08251307  0.82906295     1.49700
Zn479      Zn  0.51591184  0.09269454  0.81312143     1.49400
Zn480      Zn  0.56292443  0.11651508  0.89524294     1.49100
Zn481      Zn  0.61528408  0.18603126  0.82276145     1.49500
O482        O  0.57392393  0.12044928  0.84028713    -1.80500
O483        O  0.55268597  0.01856466  0.80793738    -0.71100
O484        O  0.46441993  0.07136308  0.85015863    -0.70900
O485        O  0.58329010  0.07622290  0.92114670    -0.70400
O486        O  0.50080354  0.03324414  0.78425086    -0.71100
O487        O  0.62559446  0.06971853  0.87619556    -0.70700
O488        O  0.49475898  0.08698260  0.90756398    -0.71300
O489        O  0.63934609  0.22919075  0.86947851    -0.70700
O490        O  0.51362470  0.14015437  0.77924898    -0.71400
O491        O  0.60179684  0.18193552  0.91856782    -0.70800
O492        O  0.58098622  0.20741853  0.78814656    -0.71300
O493        O  0.66795608  0.19010610  0.79038694    -0.71200
O494        O  0.65202450  0.11542129  0.79048809    -0.71000
C495        C  0.51639598  0.00584536  0.78887250     0.80800
C496        C  0.46000292  0.07019515  0.88573108     0.81300
C497        C  0.61173144  0.06445757  0.91028297     0.80300
C498        C  0.63081575  0.22268574  0.90486682     0.80600
C499        C  0.54108042  0.18439780  0.77295824     0.81800
C500        C  0.67594624  0.15820476  0.77880108     0.80800
C501        C  0.45885078  0.22160219  0.72861314     0.01200
C502        C  0.68294025  0.01358245  0.94738934     0.01200
Zn503      Zn  0.62761654  0.26728863  0.52566988     1.49700
Zn504      Zn  0.40080083  0.04475162  0.52917923     1.49400
Zn505      Zn  0.67449255  0.00772021  0.44291341     1.49100
Zn506      Zn  0.62494324  0.02998293  0.50978719     1.49500
O507        O  0.65917753  0.99902092  0.49747285    -1.80500
O508        O  0.33236168  0.23806661  0.53783863    -0.71100
O509        O  0.44538003  0.07459772  0.48657058    -0.70900
O510        O  0.63971954  0.26032180  0.42962433    -0.70400
O511        O  0.39059377  0.30678029  0.55879522    -0.71100
O512        O  0.61291744  0.22072174  0.48380064    -0.70700
O513        O  0.40990515  0.03341047  0.43480621    -0.71300
O514        O  0.61170377  0.05492573  0.46248043    -0.71000
O515        O  0.40288762  0.09463273  0.56382588    -0.71400
O516        O  0.65116011  0.04557445  0.41658184    -0.70800
O517        O  0.33217196  0.08244361  0.55967301    -0.71300
O518        O  0.57751889  0.33011403  0.54433626    -0.71200
O519        O  0.56861561  0.25829307  0.54801860    -0.71000
C520        C  0.36945907  0.26165442  0.55653420     0.80800
C521        C  0.44614661  0.06509898  0.45191737     0.81300
C522        C  0.61891638  0.22143058  0.44832595     0.80300
C523        C  0.62523004  0.06026310  0.42829186     0.80600
C524        C  0.37269938  0.10467272  0.57362192     0.81800
C525        C  0.55418594  0.28654934  0.55395159     0.80800
C526        C  0.55243696  0.10845684  0.38485633     0.01200
C527        C  0.44609702  0.23060543  0.61816259     0.01200
Zn528      Zn  0.44928500  0.27927416  0.13754384     1.49700
Zn529      Zn  0.46926912  0.19601996  0.14850568     1.49400
Zn530      Zn  0.42919793  0.22612576  0.21886137     1.49100
Zn531      Zn  0.36513701  0.17345240  0.14754789     1.49500
O532        O  0.42834937  0.21879277  0.16335712    -1.80500
O533        O  0.50354473  0.29783387  0.10215824    -0.71100
O534        O  0.49518941  0.18180291  0.19460717    -0.70900
O535        O  0.45510510  0.29500902  0.23276853    -0.70400
O536        O  0.52213817  0.24390610  0.11495426    -0.71100
O537        O  0.46982279  0.33051495  0.17675379    -0.70700
O538        O  0.47137941  0.20690800  0.24296667    -0.71300
O539        O  0.32467965  0.14081889  0.19290047    -0.70700
O540        O  0.43422754  0.13559911  0.11842599    -0.71400
O541        O  0.36450922  0.18425585  0.24232902    -0.70800
O542        O  0.36289618  0.12226707  0.11453240    -0.71300
O543        O  0.33748897  0.20667796  0.11969745    -0.71200
O544        O  0.39809798  0.27904355  0.10854563    -0.71000
C545        C  0.52990294  0.28132818  0.09766410     0.80800
C546        C  0.49389389  0.18882355  0.22981301     0.81300
C547        C  0.47026319  0.33221436  0.21258553     0.80300
C548        C  0.32759560  0.15001276  0.22795393     0.80600
C549        C  0.39279383  0.11103769  0.10672362     0.81800
C550        C  0.35512000  0.24819105  0.10556494     0.80800
C551        C  0.31220307  0.32333321  0.05379358     0.01200
C552        C  0.54646478  0.11938371  0.27441808     0.01200
C553        C  0.60498356  0.29752631  0.07188002    -0.12800
C554        C  0.57106114  0.30744324  0.07265068    -0.27900
H555        H  0.59947408  0.26701315  0.08812279     0.16300
H556        H  0.57516990  0.33758155  0.05683113     0.16800
C557        C  0.37921927  0.06729375  0.08524354    -0.12800
C558        C  0.33559727  0.03801759  0.07325809    -0.27900
H559        H  0.40512685  0.05766584  0.08149291     0.16300
H560        H  0.31179439  0.05068456  0.07516508     0.16800
C561        C  0.34009792  0.30048976  0.06554887    -0.12800
C562        C  0.32418259  0.26158974  0.08780088    -0.27900
H563        H  0.37602052  0.31831600  0.05640485     0.16300
H564        H  0.28797552  0.24025337  0.09572777     0.16800
C565        C  0.51921775  0.17567107  0.25600058    -0.12800
C566        C  0.51743086  0.13412007  0.25194538    -0.27900
H567        H  0.53886399  0.19972382  0.27877622     0.16300
H568        H  0.49521031  0.11021471  0.22989566     0.16800
C569        C  0.48930108  0.03081268  0.26541429    -0.12800
C570        C  0.53229143  0.06906693  0.26168846    -0.27900
H571        H  0.46396550  0.03226452  0.28332324     0.16300
H572        H  0.55694242  0.06461819  0.24514253     0.16800
C573        C  0.59769725  0.15274153  0.26420138    -0.12800
C574        C  0.61127012  0.15700446  0.22798325    -0.27900
H575        H  0.62332855  0.17080627  0.28610381     0.16300
H576        H  0.58468114  0.13867715  0.20675737     0.16800
C577        C  0.55636254  0.10408920  0.34231797    -0.12800
C578        C  0.53904686  0.12090787  0.31678502    -0.27900
H579        H  0.57445103  0.08705326  0.33189819     0.16300
H580        H  0.51932737  0.13631686  0.32681780     0.16800
C581        C  0.50190402  0.08823888  0.39710239    -0.12800
C582        C  0.49203109  0.09039058  0.43367401    -0.27900
H583        H  0.47394322  0.06934086  0.37709897     0.16300
H584        H  0.52037924  0.10954791  0.45313763     0.16800
C585        C  0.60243543  0.17493444  0.43029937    -0.12800
C586        C  0.58140397  0.16135409  0.39649379    -0.27900
H587        H  0.60197614  0.14853103  0.44877093     0.16300
H588        H  0.57823928  0.18725208  0.38001848     0.16800
C589        C  0.61084138  0.08473702  0.40195684    -0.12800
C590        C  0.56834049  0.07824832  0.40495599    -0.27900
H591        H  0.63545858  0.10933694  0.38132487     0.16300
H592        H  0.54443195  0.05109267  0.42466501     0.16800
C593        C  0.50727938  0.26693476  0.56875797    -0.12800
C594        C  0.49663791  0.26178475  0.60580854    -0.27900
H595        H  0.47967085  0.25098229  0.54817200     0.16300
H596        H  0.52417303  0.27719535  0.62650419     0.16800
C597        C  0.38530625  0.14424476  0.60054376    -0.12800
C598        C  0.42962728  0.18017985  0.60339141    -0.27900
H599        H  0.35792960  0.14813046  0.61266106     0.16300
H600        H  0.45563614  0.17473244  0.59026097     0.16800
C601        C  0.42079121  0.25380817  0.60139536    -0.12800
C602        C  0.38908638  0.23556362  0.57376232    -0.27900
H603        H  0.43136547  0.28916669  0.61182665     0.16300
H604        H  0.37831634  0.20152428  0.56110264     0.16800
C605        C  0.68530988  0.01352678  0.99023993    -0.12800
C606        C  0.30675437  0.32014531  0.01077042    -0.27900
H607        H  0.38348284  0.03509576  0.00781372     0.16300
H608        H  0.61286925  0.30769534  0.99752235     0.16800
C609        C  0.44140143  0.23107686  0.66107892    -0.12800
C610        C  0.46238795  0.21730839  0.68580059    -0.27900
H611        H  0.42058648  0.24455731  0.67260230     0.16300
H612        H  0.48269794  0.20300097  0.67479050     0.16800
C613        C  0.65183008  0.30187817  0.92660355    -0.12800
C614        C  0.65568332  0.26361667  0.93068415    -0.27900
H615        H  0.62649585  0.29913377  0.90642987     0.16300
H616        H  0.67937752  0.26369198  0.95114366     0.16800
C617        C  0.41270984  0.04839407  0.90061878    -0.12800
C618        C  0.40063178  0.03681306  0.93699272    -0.27900
H619        H  0.38669456  0.04197222  0.88003510     0.16300
H620        H  0.42785393  0.04476657  0.95704509     0.16800
C621        C  0.62725044  0.04181729  0.93714483    -0.12800
C622        C  0.67003217  0.04922062  0.93412284    -0.27900
H623        H  0.60150881  0.01408394  0.95529277     0.16300
H624        H  0.69466605  0.07892212  0.91658245     0.16800
C625        C  0.48006014  0.19594591  0.74851952    -0.12800
C626        C  0.52520539  0.20960203  0.74854933    -0.27900
H627        H  0.45666895  0.16457019  0.76512283     0.16300
H628        H  0.55055027  0.24179505  0.73388674     0.16800
C629        C  0.39702139  0.19677618  0.77760590    -0.12800
C630        C  0.40804811  0.19566665  0.74119920    -0.27900
H631        H  0.71813792  0.14113253  0.74188275     0.16300
H632        H  0.38059269  0.17508933  0.72110922     0.16800
C633        C  0.48061363  0.27458069  0.73951188    -0.12800
C634        C  0.51224765  0.29654524  0.76688281    -0.27900
H635        H  0.46690399  0.29427250  0.72616888     0.16300
H636        H  0.47865422  0.92770842  0.79246448     0.16800
Zn637      Zn  0.60599741  0.42563002  0.82661320     1.49700
Zn638      Zn  0.51286567  0.42361633  0.80729648     1.49400
Zn639      Zn  0.55399414  0.44657784  0.89215411     1.49100
Zn640      Zn  0.60880474  0.52183939  0.82407786     1.49500
O641        O  0.56979656  0.45455933  0.83766310    -1.80500
O642        O  0.56665927  0.36430458  0.79973126    -0.71100
O643        O  0.45715514  0.39869248  0.84211518    -0.70900
O644        O  0.58206381  0.41218984  0.91910852    -0.70400
O645        O  0.50521557  0.36485922  0.77863685    -0.71100
O646        O  0.62652875  0.40935868  0.87410962    -0.70700
O647        O  0.48429686  0.41116793  0.90051998    -0.71300
O648        O  0.62020725  0.56163985  0.87056802    -0.70700
O649        O  0.51084398  0.47270946  0.77319364    -0.71400
O650        O  0.57892902  0.51110909  0.91673304    -0.70800
O651        O  0.57677534  0.54044873  0.78564679    -0.71300
O652        O  0.67083553  0.53796653  0.80156725    -0.71200
O653        O  0.66332687  0.46712874  0.79538246    -0.71000
C654        C  0.52890233  0.34490630  0.78160809     0.80800
C655        C  0.45062629  0.39577402  0.87762190     0.81300
C656        C  0.61230522  0.40264399  0.90807161     0.80300
C657        C  0.60553760  0.55327292  0.90450278     0.80600
C658        C  0.53822573  0.51753278  0.76851110     0.81800
C659        C  0.68605734  0.51191156  0.79020419     0.80800
C660        C  0.46521224  0.56300537  0.71929499     0.01200
C661        C  0.68483097  0.35073261  0.94395018     0.01200
Zn662      Zn  0.63553607  0.60986720  0.51853880     1.49700
Zn663      Zn  0.38214520  0.35133084  0.52599298     1.49400
Zn664      Zn  0.67271374  0.32991292  0.44805605     1.49100
Zn665      Zn  0.63819268  0.36938395  0.51682661     1.49500
O666        O  0.66533832  0.33088816  0.50403641    -1.80500
O667        O  0.32173180  0.56301488  0.54020674    -0.71100
O668        O  0.42932499  0.37242264  0.48618204    -0.70900
O669        O  0.62290383  0.57917260  0.42519407    -0.70400
O670        O  0.39122515  0.62812205  0.54567444    -0.71100
O671        O  0.61069067  0.55258626  0.48428209    -0.70700
O672        O  0.39830667  0.36989956  0.43052082    -0.71300
O673        O  0.62227707  0.39256615  0.46916993    -0.71000
O674        O  0.39983886  0.41133184  0.55283013    -0.71400
O675        O  0.64477872  0.36503331  0.42148476    -0.70800
O676        O  0.33452285  0.41183929  0.55472554    -0.71300
O677        O  0.58359089  0.66908977  0.54010999    -0.71200
O678        O  0.58144654  0.60192452  0.55203632    -0.71000
C679        C  0.36292806  0.58464264  0.55309605     0.80800
C680        C  0.43327382  0.37996206  0.45099904     0.81300
C681        C  0.60764008  0.54508044  0.44889983     0.80300
C682        C  0.62596100  0.38751363  0.43389928     0.80600
C683        C  0.37774593  0.43160376  0.56082969     0.81800
C684        C  0.56583433  0.62945961  0.55727429     0.80800
C685        C  0.54580924  0.42730173  0.38917860     0.01200
C686        C  0.44540486  0.55533102  0.60897403     0.01200
Zn687      Zn  0.46377230  0.61712612  0.16008834     1.49700
Zn688      Zn  0.46768183  0.52342842  0.15570447     1.49400
Zn689      Zn  0.41423827  0.54122549  0.22400944     1.49100
Zn690      Zn  0.37397247  0.52018002  0.13816172     1.49500
O691        O  0.42962883  0.54963613  0.16975138    -1.80500
O692        O  0.51924224  0.63570187  0.12741975    -0.71100
O693        O  0.48569429  0.50279902  0.20330634    -0.70900
O694        O  0.44129330  0.60456332  0.25197664    -0.70400
O695        O  0.52488364  0.57133989  0.12515070    -0.71100
O696        O  0.48596360  0.65544432  0.20758247    -0.70700
O697        O  0.43929746  0.50329437  0.24802272    -0.71300
O698        O  0.31866256  0.49268042  0.17293460    -0.70700
O699        O  0.43013722  0.46408398  0.12384043    -0.71400
O700        O  0.34515797  0.50753144  0.23166406    -0.70800
O701        O  0.36755930  0.46475904  0.10631471    -0.71300
O702        O  0.36831834  0.56946740  0.10751340    -0.71200
O703        O  0.42186066  0.63572016  0.13595153    -0.71000
C704        C  0.53989308  0.61466168  0.11649308     0.80800
C705        C  0.46931300  0.49359228  0.23682840     0.81300
C706        C  0.47109883  0.64665639  0.24135316     0.80300
C707        C  0.31189851  0.49093066  0.20835175     0.80600
C708        C  0.39212587  0.44567854  0.10587538     0.81800
C709        C  0.38672809  0.61371531  0.11475757     0.80800
C710        C  0.32440876  0.66289117  0.05455241     0.01200
C711        C  0.53916629  0.44126168  0.27874231     0.01200
C712        C  0.60311485  0.62538446  0.07278128    -0.12800
C713        C  0.58371909  0.64341858  0.09545740    -0.27900
H714        H  0.58391907  0.58721945  0.06763681     0.16300
H715        H  0.60049799  0.68138510  0.10001972     0.16800
C716        C  0.37568375  0.39934899  0.08671148    -0.12800
C717        C  0.33680855  0.37634913  0.06566075    -0.27900
H718        H  0.39471839  0.38222583  0.09340292     0.16300
H719        H  0.31923536  0.39512330  0.05886801     0.16800
C720        C  0.35289650  0.64057832  0.06588087    -0.12800
C721        C  0.36448637  0.63948048  0.10186604    -0.27900
H722        H  0.36195445  0.62286173  0.04468477     0.16300
H723        H  0.35704573  0.65827010  0.12322358     0.16800
C724        C  0.48398085  0.46905275  0.26288243    -0.12800
C725        C  0.52604922  0.47440845  0.25980340    -0.27900
H726        H  0.45900738  0.44398778  0.28310875     0.16300
H727        H  0.55080041  0.50154598  0.24052321     0.16800
C728        C  0.48986258  0.37927861  0.23019523    -0.12800
C729        C  0.50769168  0.38971947  0.26529894    -0.27900
H730        H  0.49420073  0.40750042  0.21168127     0.16300
H731        H  0.50588265  0.36134746  0.28221167     0.16800
C732        C  0.58918123  0.45837958  0.26736831    -0.12800
C733        C  0.60094893  0.45877437  0.23095893    -0.27900
H734        H  0.61611458  0.47308430  0.28859093     0.16300
H735        H  0.57427181  0.44464340  0.20970519     0.16800
C736        C  0.54879975  0.42253881  0.34643464    -0.12800
C737        C  0.53554304  0.44423436  0.32153659    -0.27900
H738        H  0.56237614  0.40127650  0.33563846     0.16300
H739        H  0.52239577  0.46573420  0.33269518     0.16800
C740        C  0.49448229  0.40624944  0.40007445    -0.12800
C741        C  0.48099599  0.40187119  0.43628212    -0.27900
H742        H  0.46818990  0.39316534  0.37834905     0.16300
H743        H  0.50678168  0.41243637  0.45793872     0.16800
C744        C  0.58544842  0.49501015  0.43630466    -0.12800
C745        C  0.57413942  0.48031271  0.40033062    -0.27900
H746        H  0.57789239  0.46914012  0.45823219     0.16300
H747        H  0.58462039  0.50720162  0.37856412     0.16800
C748        C  0.60820038  0.40881992  0.40700416    -0.12800
C749        C  0.56443705  0.39954168  0.40987309    -0.27900
H750        H  0.63159743  0.43367103  0.38590556     0.16300
H751        H  0.54175573  0.37234760  0.43001495     0.16800
C752        C  0.52587441  0.61618100  0.58299504    -0.12800
C753        C  0.49277297  0.57065352  0.59065812    -0.27900
H754        H  0.52103635  0.64469589  0.59236212     0.16300
H755        H  0.49838100  0.54298938  0.58013848     0.16800
C756        C  0.40497034  0.48227251  0.56992498    -0.12800
C757        C  0.41444119  0.50113463  0.60472625    -0.27900
H758        H  0.41971622  0.50585878  0.54578874     0.16300
H759        H  0.40026051  0.47806807  0.62919473     0.16800
C760        C  0.42336859  0.58013178  0.58875171    -0.12800
C761        C  0.37902611  0.55873753  0.57623732    -0.27900
H762        H  0.44528715  0.61831673  0.58482619     0.16300
H763        H  0.35436496  0.52138870  0.58172943     0.16800
C764        C  0.68477266  0.35060117  0.98715675    -0.12800
C765        C  0.31751932  0.65809946  0.01174699    -0.27900
H766        H  0.37739993  0.35908344  0.99994205     0.16300
H767        H  0.61331306  0.63583638  0.00008061     0.16800
C768        C  0.45093758  0.56979500  0.65051207    -0.12800
C769        C  0.46690302  0.55293501  0.67730451    -0.27900
H770        H  0.43912968  0.59333988  0.65949041     0.16300
H771        H  0.47860363  0.52913982  0.66890792     0.16800
C772        C  0.66440800  0.62966036  0.92971186    -0.12800
C773        C  0.61992368  0.59408444  0.92988171    -0.27900
H774        H  0.68831381  0.62341080  0.91377408     0.16300
H775        H  0.59371468  0.59652485  0.94553987     0.16800
C776        C  0.40234987  0.37281014  0.89170868    -0.12800
C777        C  0.39084127  0.37056078  0.92852618    -0.27900
H778        H  0.37546422  0.35455151  0.87092200     0.16300
H779        H  0.41908414  0.38919850  0.94833338     0.16800
C780        C  0.62943167  0.38030429  0.93418379    -0.12800
C781        C  0.67135213  0.38539830  0.92889081    -0.27900
H782        H  0.60521483  0.35511373  0.95460955     0.16300
H783        H  0.69501926  0.41269366  0.90920088     0.16800
C784        C  0.48125745  0.53529073  0.74302107    -0.12800
C785        C  0.52488441  0.54424233  0.74328630    -0.27900
H786        H  0.45649630  0.50765866  0.76192962     0.16300
H787        H  0.55169157  0.57402192  0.72720258     0.16800
C788        C  0.38104817  0.50067549  0.73353520    -0.12800
C789        C  0.41512052  0.54669552  0.73040942    -0.27900
H790        H  0.76203043  0.55418142  0.79075558     0.16300
H791        H  0.40773964  0.57348818  0.73988069     0.16800
C792        C  0.49605538  0.61655849  0.72800727    -0.12800
C793        C  0.49414968  0.63387056  0.76207072    -0.27900
H794        H  0.51832201  0.64106122  0.70619925     0.16300
H795        H  0.52602287  0.27792405  0.78144821     0.16800
Zn796      Zn  0.60776949  0.76566649  0.80674623     1.49700
Zn797      Zn  0.51477944  0.76644465  0.80837567     1.49400
Zn798      Zn  0.56952826  0.77997573  0.88735337     1.49100
Zn799      Zn  0.60729024  0.86096086  0.82338241     1.49500
O800        O  0.57512541  0.79294096  0.83208180    -1.80500
O801        O  0.56394527  0.70701088  0.77533338    -0.71100
O802        O  0.46823129  0.75193102  0.84923428    -0.70900
O803        O  0.59751155  0.73910905  0.90160466    -0.70400
O804        O  0.49686355  0.70276386  0.78486991    -0.71100
O805        O  0.62963943  0.73814098  0.84687283    -0.70700
O806        O  0.50024061  0.74896658  0.90308840    -0.71300
O807        O  0.62601532  0.89726595  0.87215768    -0.70700
O808        O  0.51031293  0.81231266  0.77138636    -0.71400
O809        O  0.60743719  0.84273613  0.91670772    -0.70800
O810        O  0.57029207  0.88007943  0.79209281    -0.71300
O811        O  0.66505595  0.88235811  0.79361953    -0.71200
O812        O  0.66333654  0.81661654  0.77575140    -0.71000
C813        C  0.51994524  0.68457408  0.77312652     0.80800
C814        C  0.46552953  0.74355196  0.88439463     0.81300
C815        C  0.62199030  0.72772155  0.88180146     0.80300
C816        C  0.62613259  0.88609636  0.90645599     0.80600
C817        C  0.53459237  0.85779526  0.77149490     0.81800
C818        C  0.68223992  0.86192154  0.77537021     0.80800
C819        C  0.45967751  0.89913342  0.71897840     0.01200
C820        C  0.68339527  0.67946083  0.94622704     0.01200
Zn821      Zn  0.61990150  0.93065275  0.50766750     1.49700
Zn822      Zn  0.38720667  0.67683496  0.51669871     1.49400
Zn823      Zn  0.65692955  0.65140679  0.43243387     1.49100
Zn824      Zn  0.63529332  0.70313866  0.50194174     1.49500
O825        O  0.66424720  0.66752905  0.48708849    -1.80500
O826        O  0.36350591  0.93700521  0.56186971    -0.71100
O827        O  0.43817221  0.70263096  0.47999806    -0.70900
O828        O  0.64975472  0.94498115  0.41550958    -0.70400
O829        O  0.42482479  0.01022525  0.55914889    -0.71100
O830        O  0.60575721  0.89211587  0.45920929    -0.70700
O831        O  0.40826116  0.69612334  0.42330091    -0.71300
O832        O  0.60967585  0.71506182  0.45633139    -0.71000
O833        O  0.40343155  0.72993711  0.55205609    -0.71400
O834        O  0.61943252  0.67673697  0.40869038    -0.70800
O835        O  0.34686224  0.74450962  0.54568192    -0.71300
O836        O  0.56261022  0.98351165  0.53443266    -0.71200
O837        O  0.55925300  0.91415306  0.53283252    -0.71000
C838        C  0.40541557  0.96721895  0.56993778     0.80800
C839        C  0.44283929  0.70907050  0.44476796     0.81300
C840        C  0.62174441  0.90222639  0.42565662     0.80300
C841        C  0.60481250  0.70261549  0.42194384     0.80600
C842        C  0.38553051  0.75442699  0.55988751     0.81800
C843        C  0.54144952  0.93888824  0.54110174     0.80800
C844        C  0.55400949  0.77532991  0.38389639     0.01200
C845        C  0.43486824  0.87741841  0.60950341     0.01200
Zn846      Zn  0.46548874  0.95659968  0.15943878     1.49700
Zn847      Zn  0.47443182  0.86605503  0.15391119     1.49400
Zn848      Zn  0.42422189  0.88327107  0.22674354     1.49100
Zn849      Zn  0.37594092  0.85297900  0.14441726     1.49500
O850        O  0.43472786  0.88912837  0.17139032    -1.80500
O851        O  0.52220126  0.97937384  0.12704656    -0.71100
O852        O  0.49560525  0.84611568  0.19889188    -0.70900
O853        O  0.44775679  0.94740509  0.25244390    -0.70400
O854        O  0.53071486  0.91693250  0.12494338    -0.71100
O855        O  0.48581051  0.99757153  0.20566988    -0.70700
O856        O  0.46107284  0.85649410  0.24868404    -0.71300
O857        O  0.32429499  0.82340808  0.18303825    -0.70700
O858        O  0.44062134  0.80838217  0.12022160    -0.71400
O859        O  0.35528590  0.84292478  0.24019659    -0.70800
O860        O  0.37193970  0.79976185  0.11074086    -0.71300
O861        O  0.36314783  0.89778258  0.11513324    -0.71200
O862        O  0.42036975  0.96903690  0.13408166    -0.71000
C863        C  0.54448964  0.95997516  0.11648491     0.80800
C864        C  0.48791466  0.84428096  0.23417420     0.81300
C865        C  0.47386127  0.98957230  0.24013297     0.80300
C866        C  0.32006157  0.82286666  0.21874999     0.80600
C867        C  0.40074837  0.78630734  0.10524364     0.81800
C868        C  0.38218074  0.94286517  0.11731755     0.80800
C869        C  0.31667670  0.98749793  0.05795772     0.01200
C870        C  0.54343050  0.77648788  0.27401771     0.01200
C871        C  0.61007790  0.97061895  0.07703249    -0.12800
C872        C  0.58795535  0.98929438  0.09502207    -0.27900
H873        H  0.59291595  0.93210002  0.07598937     0.16300
H874        H  0.60177787  0.02733446  0.09425953     0.16800
C875        C  0.38776018  0.74247196  0.08335575    -0.12800
C876        C  0.34630276  0.71555992  0.06658542    -0.27900
H877        H  0.41193146  0.73029835  0.08411955     0.16300
H878        H  0.32516855  0.73124451  0.06364056     0.16800
C879        C  0.34694013  0.96727214  0.06828463    -0.12800
C880        C  0.35698942  0.96513603  0.10446309    -0.27900
H881        H  0.35911750  0.95301830  0.04655340     0.16300
H882        H  0.34622659  0.98082502  0.12608814     0.16800
C883        C  0.51245929  0.82939642  0.25895054    -0.12800
C884        C  0.51337613  0.78977900  0.25187968    -0.27900
H885        H  0.53062541  0.85173874  0.28295893     0.16300
H886        H  0.49299815  0.76713589  0.22857298     0.16800
C887        C  0.48666459  0.68735891  0.26734317    -0.12800
C888        C  0.52968245  0.72551091  0.26373100    -0.27900
H889        H  0.46095578  0.68938040  0.28428999     0.16300
H890        H  0.55456641  0.72027487  0.24832457     0.16800
C891        C  0.59385843  0.80954476  0.26165171    -0.12800
C892        C  0.60555344  0.80887554  0.22548189    -0.27900
H893        H  0.62052542  0.83090521  0.28208021     0.16300
H894        H  0.57803224  0.78772367  0.20555327     0.16800
C895        C  0.56245305  0.77512696  0.34184866    -0.12800
C896        C  0.53717953  0.78078420  0.31600650    -0.27900
H897        H  0.58864987  0.76783194  0.33208537     0.16300
H898        H  0.51083057  0.78788360  0.32564788     0.16800
C899        C  0.50327347  0.74048358  0.39412475    -0.12800
C900        C  0.49048370  0.73456353  0.43054024    -0.27900
H901        H  0.47734122  0.72239100  0.37243255     0.16300
H902        H  0.51720983  0.75184972  0.45181126     0.16800
C903        C  0.60938144  0.86301607  0.39866456    -0.12800
C904        C  0.56629433  0.82457658  0.39823461    -0.27900
H905        H  0.63684409  0.86313853  0.38262876     0.16300
H906        H  0.53974336  0.82750286  0.41321676     0.16800
C907        C  0.58110129  0.71868543  0.39728665    -0.12800
C908        C  0.58331312  0.76000354  0.40445426    -0.27900
H909        H  0.56099540  0.69636918  0.37384220     0.16300
H910        H  0.60546143  0.78247108  0.42712385     0.16800
C911        C  0.49398213  0.91475613  0.55665842    -0.12800
C912        C  0.48425762  0.90131326  0.59302581    -0.27900
H913        H  0.46648136  0.90969639  0.53804022     0.16300
H914        H  0.51253073  0.90764670  0.61131282     0.16800
C915        C  0.41215765  0.79575919  0.58519007    -0.12800
C916        C  0.40347243  0.83092851  0.58828048    -0.27900
H917        H  0.44229603  0.79946729  0.59918159     0.16300
H918        H  0.37389924  0.82700321  0.57304494     0.16800
C919        C  0.41249186  0.90713560  0.60457151    -0.12800
C920        C  0.43306971  0.95108600  0.58951333    -0.27900
H921        H  0.37539406  0.88864963  0.60997455     0.16300
H922        H  0.47042748  0.97300952  0.58695402     0.16800
C923        C  0.68504763  0.67751672  0.98937133    -0.12800
C924        C  0.31257536  0.98842880  0.01541546    -0.27900
H925        H  0.38822194  0.69897137  0.00061050     0.16300
H926        H  0.61402335  0.97437714  0.00315148     0.16800
C927        C  0.43541631  0.86790839  0.65169008    -0.12800
C928        C  0.45941071  0.90413709  0.67610436    -0.27900
H929        H  0.41523768  0.83171943  0.66240211     0.16300
H930        H  0.47894789  0.93967596  0.66400894     0.16800
C931        C  0.64901451  0.96512088  0.92991956    -0.12800
C932        C  0.65011213  0.92517527  0.93423890    -0.27900
H933        H  0.62511789  0.96413696  0.90908041     0.16300
H934        H  0.67162277  0.92301149  0.95567715     0.16800
C935        C  0.41997742  0.72695048  0.90239727    -0.12800
C936        C  0.40293325  0.69582514  0.93126650    -0.27900
H937        H  0.39773095  0.73627132  0.88789854     0.16300
H938        H  0.42520284  0.68488027  0.94367576     0.16800
C939        C  0.64139142  0.70012891  0.89778963    -0.12800
C940        C  0.65512221  0.70184600  0.93378161    -0.27900
H941        H  0.64641639  0.67858392  0.87754297     0.16300
H942        H  0.64848083  0.72222082  0.95424522     0.16800
C943        C  0.48206234  0.86988686  0.72937774    -0.12800
C944        C  0.52136818  0.88716747  0.74953269    -0.27900
H945        H  0.46299968  0.83221011  0.72248561     0.16300
H946        H  0.54355205  0.92523193  0.75362109     0.16800
C947        C  0.38915100  0.83734122  0.75689659    -0.12800
C948        C  0.41002067  0.87615714  0.73438050    -0.27900
H949        H  0.74393227  0.93063904  0.76219206     0.16300
H950        H  0.39226867  0.89520020  0.72929089     0.16800
C951        C  0.48586486  0.94957295  0.73583665    -0.12800
C952        C  0.49099749  0.95748830  0.77314897    -0.27900
H953        H  0.50044270  0.98051082  0.71744229     0.16300
H954        H  0.47032684  0.60939409  0.78318639     0.16800
Zn955      Zn  0.93742335  0.09050498  0.82890995     1.49700
Zn956      Zn  0.84948859  0.09446725  0.81112152     1.49400
Zn957      Zn  0.89193585  0.11724298  0.89544900     1.49100
Zn958      Zn  0.94492390  0.19101154  0.82749428     1.49500
O959        O  0.90592132  0.12393302  0.84115290    -1.80500
O960        O  0.89404351  0.02707592  0.80438350    -0.71100
O961        O  0.79449865  0.06680861  0.84513034    -0.70900
O962        O  0.91787365  0.08119053  0.92168357    -0.70400
O963        O  0.83976420  0.03800460  0.78075182    -0.71100
O964        O  0.95888702  0.07441809  0.87570099    -0.70700
O965        O  0.82281448  0.07966386  0.90317592    -0.71300
O966        O  0.95998737  0.23247046  0.87411954    -0.70700
O967        O  0.84627444  0.14214713  0.77825914    -0.71400
O968        O  0.91882957  0.18243018  0.92051929    -0.70800
O969        O  0.91275309  0.21001149  0.78869097    -0.71300
O970        O  0.00494109  0.20325572  0.80493539    -0.71200
O971        O  0.99361734  0.13080841  0.79630485    -0.71000
C972        C  0.85765968  0.01264926  0.78504490     0.80800
C973        C  0.78876861  0.06242360  0.88054367     0.81300
C974        C  0.94567637  0.06882005  0.90991037     0.80300
C975        C  0.94642924  0.22454823  0.90838592     0.80600
C976        C  0.87352860  0.18652287  0.77247036     0.81800
C977        C  0.01807009  0.17585645  0.79250992     0.80800
C978        C  0.79594694  0.22922590  0.72834513     0.01200
C979        C  0.00999191  0.00722695  0.94160515     0.01200
Zn980      Zn  0.97168113  0.26544048  0.52326067     1.49700
Zn981      Zn  0.71612288  0.02718658  0.52857577     1.49400
Zn982      Zn  0.00560128  0.99641978  0.44294210     1.49100
Zn983      Zn  0.95438825  0.01555764  0.51086435     1.49500
O984        O  0.99287998  0.99028183  0.49760052    -1.80500
O985        O  0.65978644  0.25043395  0.56584190    -0.71100
O986        O  0.77124635  0.05411238  0.49264312    -0.70900
O987        O  0.95986801  0.24428604  0.42871788    -0.70400
O988        O  0.73204585  0.31012002  0.55917631    -0.71100
O989        O  0.95374618  0.21333200  0.48573345    -0.70700
O990        O  0.74237530  0.04253262  0.43483228    -0.71300
O991        O  0.93454032  0.03454922  0.46351537    -0.71000
O992        O  0.72547218  0.08410934  0.56096563    -0.71400
O993        O  0.98232597  0.03593728  0.41941638    -0.70800
O994        O  0.66446897  0.08762390  0.54307269    -0.71300
O995        O  0.91065474  0.31599910  0.54250773    -0.71200
O996        O  0.91233481  0.24997168  0.55102703    -0.71000
C997        C  0.70260602  0.27013769  0.57345424     0.80800
C998        C  0.77648242  0.05788604  0.45695359     0.81300
C999        C  0.94972098  0.20908366  0.45014375     0.80300
C1000       C  0.95169148  0.04478880  0.43026966     0.80600
C1001       C  0.70238191  0.10483706  0.56112029     0.81800
C1002       C  0.89227080  0.27347343  0.55484414     0.80800
C1003       C  0.88072748  0.09606295  0.38898230     0.01200
C1004       C  0.78022065  0.22626851  0.61665034     0.01200
Zn1005     Zn  0.80224025  0.29198119  0.14554620     1.49700
Zn1006     Zn  0.80571398  0.19907255  0.15554377     1.49400
Zn1007     Zn  0.76419867  0.23359695  0.22243461     1.49100
Zn1008     Zn  0.71259158  0.19706561  0.14031137     1.49500
O1009       O  0.77124524  0.22971357  0.16727816    -1.80500
O1010       O  0.84820630  0.29942404  0.10602452    -0.71100
O1011       O  0.82551645  0.18135325  0.20366544    -0.70900
O1012       O  0.80349759  0.30509921  0.23975559    -0.70400
O1013       O  0.86004281  0.24057475  0.11956305    -0.71100
O1014       O  0.83458250  0.34010177  0.18482536    -0.70700
O1015       O  0.78634477  0.19293581  0.24884091    -0.71300
O1016       O  0.66336994  0.17525826  0.17889179    -0.70700
O1017       O  0.76207211  0.13550802  0.13072857    -0.71400
O1018       O  0.69451054  0.20360527  0.23517795    -0.70800
O1019       O  0.70114388  0.13892078  0.11257880    -0.71300
O1020       O  0.69993540  0.23804710  0.10672449    -0.71200
O1021       O  0.75730491  0.30838512  0.12545479    -0.71000
C1022       C  0.87012843  0.27807662  0.10097448     0.80800
C1023       C  0.81138305  0.17652879  0.23774399     0.81300
C1024       C  0.83022698  0.34234582  0.22011618     0.80300
C1025       C  0.65926365  0.18038489  0.21385416     0.80600
C1026       C  0.72292024  0.11722939  0.11459894     0.81800
C1027       C  0.71859812  0.28279750  0.10947918     0.80800
C1028       C  0.65227708  0.32878660  0.05264249     0.01200
C1029       C  0.86991969  0.10992599  0.27868321     0.01200
C1030       C  0.94604771  0.29451117  0.07757311    -0.12800
C1031       C  0.90946019  0.29983999  0.07409905    -0.27900
H1032       H  0.94309587  0.26813295  0.09759890     0.16300
H1033       H  0.91217827  0.32718385  0.05531595     0.16800
C1034       C  0.70024407  0.06776276  0.10173423    -0.12800
C1035       C  0.68127206  0.05276442  0.06737601    -0.27900
H1036       H  0.69910915  0.04241018  0.12185202     0.16300
H1037       H  0.68409930  0.07872505  0.04698709     0.16800
C1038       C  0.68121649  0.30676724  0.06238525    -0.12800
C1039       C  0.69270795  0.30489449  0.09814748    -0.27900
H1040       H  0.69196379  0.29151008  0.04034578     0.16300
H1041       H  0.68340844  0.32124162  0.12030546     0.16800
C1042       C  0.82205763  0.14842373  0.26417410    -0.12800
C1043       C  0.86004188  0.14556871  0.25916290    -0.27900
H1044       H  0.79722149  0.12766123  0.28614920     0.16300
H1045       H  0.88492021  0.16938660  0.23821748     0.16800
C1046       C  0.81883201  0.04694860  0.23131846    -0.12800
C1047       C  0.83579888  0.05813312  0.26659793    -0.27900
H1048       H  0.82331455  0.07506888  0.21261138     0.16300
H1049       H  0.83362150  0.02983688  0.28384500     0.16800
C1050       C  0.91872850  0.12320215  0.26619610    -0.12800
C1051       C  0.92907401  0.12213723  0.22952382    -0.27900
H1052       H  0.94628617  0.13674417  0.28684784     0.16300
H1053       H  0.90203461  0.10934188  0.20867651     0.16800
C1054       C  0.88016557  0.09053457  0.34599815    -0.12800
C1055       C  0.86858327  0.11437259  0.32169340    -0.27900
H1056       H  0.89032660  0.06674694  0.33433434     0.16300
H1057       H  0.85863476  0.13835257  0.33325573     0.16800
C1058       C  0.83233879  0.08052591  0.40374710    -0.12800
C1059       C  0.82336849  0.07924887  0.44112209    -0.27900
H1060       H  0.80402974  0.06770619  0.38387244     0.16300
H1061       H  0.85098675  0.09071290  0.46131180     0.16800
C1062       C  0.93153268  0.16120550  0.43454482    -0.12800
C1063       C  0.91335456  0.14829563  0.39984552    -0.27900
H1064       H  0.92871082  0.13452031  0.45406035     0.16300
H1065       H  0.91496412  0.17554349  0.38161619     0.16800
C1066       C  0.93693666  0.06918050  0.40410720    -0.12800
C1067       C  0.89489986  0.06360784  0.40756465    -0.27900
H1068       H  0.96159892  0.09411008  0.38365102     0.16300
H1069       H  0.87070970  0.03644111  0.42711213     0.16800
C1070       C  0.84395843  0.24876772  0.56899717    -0.12800
C1071       C  0.83145586  0.24863668  0.60523111    -0.27900
H1072       H  0.81710479  0.23157940  0.54789516     0.16300
H1073       H  0.85837740  0.26617712  0.62628072     0.16800
C1074       C  0.72082292  0.15243024  0.57885677    -0.12800
C1075       C  0.75447421  0.17276869  0.60533985    -0.27900
H1076       H  0.70728951  0.17249273  0.56639530     0.16300
H1077       H  0.76704812  0.15129847  0.61727058     0.16800
C1078       C  0.76230612  0.25456090  0.59595318    -0.12800
C1079       C  0.71857474  0.24550031  0.59836480    -0.27900
H1080       H  0.78625674  0.28328435  0.57737981     0.16300
H1081       H  0.69333792  0.21642348  0.61595704     0.16800
C1082       C  0.01224951  0.00673841  0.98453066    -0.12800
C1083       C  0.64706782  0.32824035  0.00982747    -0.27900
H1084       H  0.71944536  0.03178749  0.00297025     0.16300
H1085       H  0.95634717  0.30634696  0.00454206     0.16800
C1086       C  0.77675222  0.23281247  0.65937260    -0.12800
C1087       C  0.79339160  0.21667336  0.68622620    -0.27900
H1088       H  0.76237445  0.25398091  0.66861797     0.16300
H1089       H  0.80737641  0.19507412  0.67721292     0.16800
C1090       C  0.00612339  0.30292374  0.93249263    -0.12800
C1091       C  0.96214975  0.26564722  0.93415297    -0.27900
H1092       H  0.02952091  0.29784589  0.91473357     0.16300
H1093       H  0.93643718  0.26631370  0.95189018     0.16800
C1094       C  0.74110177  0.03763056  0.89507035    -0.12800
C1095       C  0.73133522  0.03061564  0.93203421    -0.27900
H1096       H  0.71333514  0.02760752  0.87508438     0.16300
H1097       H  0.75959285  0.04011704  0.95138407     0.16800
C1098       C  0.96052084  0.04399797  0.93535887    -0.12800
C1099       C  0.00024716  0.04525334  0.92848916    -0.27900
H1100       H  0.93586333  0.01961252  0.95598445     0.16300
H1101       H  0.02456446  0.07212721  0.90880759     0.16800
C1102       C  0.81449740  0.20220213  0.75005009    -0.12800
C1103       C  0.85820362  0.21140333  0.74738794    -0.27900
H1104       H  0.79191461  0.17557929  0.77057615     0.16300
H1105       H  0.88345542  0.24037114  0.72974060     0.16800
C1106       C  0.71450316  0.17015159  0.75209412    -0.12800
C1107       C  0.74841191  0.21530494  0.74485287    -0.27900
H1108       H  0.09342263  0.21930508  0.79446447     0.16300
H1109       H  0.74398300  0.24354093  0.75596564     0.16800
C1110       C  0.82633973  0.28338481  0.73429948    -0.12800
C1111       C  0.85345438  0.30295917  0.76477224    -0.27900
H1112       H  0.81919388  0.30606821  0.71715285     0.16300
H1113       H  0.82703575  0.93505425  0.78744941     0.16800
Zn1114     Zn  0.94903478  0.43705916  0.81801655     1.49700
Zn1115     Zn  0.85131069  0.42599895  0.80601170     1.49400
Zn1116     Zn  0.89859879  0.44699306  0.89017654     1.49100
Zn1117     Zn  0.93994095  0.52575189  0.82325190     1.49500
O1118       O  0.90894638  0.45865019  0.83512167    -1.80500
O1119       O  0.91000567  0.37261135  0.79483659    -0.71100
O1120       O  0.79849748  0.39747200  0.84320705    -0.70900
O1121       O  0.93859069  0.42001720  0.91198359    -0.70400
O1122       O  0.84639415  0.37047980  0.77577829    -0.71100
O1123       O  0.98245464  0.42993856  0.86174073    -0.70700
O1124       O  0.82798624  0.40579459  0.90068370    -0.71300
O1125       O  0.95842609  0.56393847  0.87057150    -0.70700
O1126       O  0.84108593  0.47184435  0.77421047    -0.71400
O1127       O  0.92036642  0.51109610  0.91626187    -0.70800
O1128       O  0.89715122  0.54067000  0.79727314    -0.71300
O1129       O  0.99419144  0.54766008  0.78742392    -0.71200
O1130       O  0.99668308  0.48214739  0.77986643    -0.71000
C1131       C  0.87127672  0.35187848  0.77799864     0.80800
C1132       C  0.79332326  0.39162385  0.87870356     0.81300
C1133       C  0.97315095  0.42029180  0.89652817     0.80300
C1134       C  0.94540869  0.55402870  0.90479406     0.80600
C1135       C  0.86110717  0.51700991  0.77742967     0.81800
C1136       C  0.01151095  0.52555810  0.77185376     0.80800
C1137       C  0.78698638  0.55373314  0.71791951     0.01200
C1138       C  0.02473299  0.35279161  0.94962352     0.01200
Zn1139     Zn  0.95966241  0.59552640  0.51939427     1.49700
Zn1140     Zn  0.72469091  0.35706852  0.52888913     1.49400
Zn1141     Zn  0.98809079  0.31433008  0.44031944     1.49100
Zn1142     Zn  0.97042015  0.36046301  0.51318252     1.49500
O1143       O  0.99802242  0.32484567  0.49480422    -1.80500
O1144       O  0.68511462  0.60988933  0.55055638    -0.71100
O1145       O  0.77425918  0.38225372  0.49034325    -0.70900
O1146       O  0.98141824  0.61354658  0.42530169    -0.70400
O1147       O  0.75023849  0.67534297  0.53213629    -0.71100
O1148       O  0.95076601  0.55922637  0.47098636    -0.70700
O1149       O  0.74223227  0.36295913  0.43353632    -0.71300
O1150       O  0.95064581  0.38485877  0.46854342    -0.71000
O1151       O  0.73673706  0.40962802  0.56449124    -0.71400
O1152       O  0.94691288  0.33771662  0.42174790    -0.70800
O1153       O  0.68065604  0.42365589  0.55214859    -0.71300
O1154       O  0.89896184  0.64049595  0.55497501    -0.71200
O1155       O  0.89580606  0.57320833  0.54096126    -0.71000
C1156       C  0.72912919  0.63726969  0.55135078     0.80800
C1157       C  0.77782348  0.38207477  0.45475982     0.81300
C1158       C  0.96081370  0.57043881  0.43639779     0.80300
C1159       C  0.93893390  0.36875698  0.43506096     0.80600
C1160       C  0.71724342  0.43326750  0.56991953     0.81800
C1161       C  0.87761179  0.59528490  0.55507372     0.80800
C1162       C  0.89087381  0.44471708  0.39426560     0.01200
C1163       C  0.76226867  0.56001275  0.60983606     0.01200
Zn1164     Zn  0.79421890  0.61731597  0.15977205     1.49700
Zn1165     Zn  0.80489249  0.52691997  0.15666586     1.49400
Zn1166     Zn  0.75196316  0.54280571  0.22736799     1.49100
Zn1167     Zn  0.70636921  0.51562650  0.14417982     1.49500
O1168       O  0.76447700  0.55023625  0.17231827    -1.80500
O1169       O  0.85141308  0.63946677  0.12772085    -0.71100
O1170       O  0.82444791  0.50564240  0.20363135    -0.70900
O1171       O  0.77659969  0.60724717  0.25352565    -0.70400
O1172       O  0.86110216  0.57762665  0.12637597    -0.71100
O1173       O  0.81311684  0.65747115  0.20626425    -0.70700
O1174       O  0.78184393  0.50891391  0.25044238    -0.71300
O1175       O  0.65374820  0.48358701  0.18089749    -0.70700
O1176       O  0.77002613  0.46945351  0.12203694    -0.71400
O1177       O  0.68312498  0.50388652  0.23847066    -0.70800
O1178       O  0.70335022  0.46466152  0.11030339    -0.71300
O1179       O  0.69234076  0.55926323  0.11480756    -0.71200
O1180       O  0.74908055  0.63034837  0.13385638    -0.71000
C1181       C  0.87401046  0.62031540  0.11717523     0.80800
C1182       C  0.81070620  0.49824037  0.23796918     0.81300
C1183       C  0.80167802  0.64949883  0.24085619     0.80300
C1184       C  0.64866718  0.48281051  0.21643050     0.80600
C1185       C  0.73093411  0.44968888  0.10557557     0.81800
C1186       C  0.71094945  0.60419373  0.11691709     0.80800
C1187       C  0.65192593  0.65486418  0.05512907     0.01200
C1188       C  0.88888212  0.45685562  0.28352593     0.01200
C1189       C  0.93483115  0.63324013  0.06989565    -0.12800
C1190       C  0.91765431  0.65025630  0.09592429    -0.27900
H1191       H  0.91352119  0.59591291  0.06210592     0.16300
H1192       H  0.93625222  0.68772409  0.10314995     0.16800
C1193       C  0.71684788  0.40690717  0.08220076    -0.12800
C1194       C  0.67395232  0.38024762  0.06742279    -0.27900
H1195       H  0.74136044  0.39523948  0.08003537     0.16300
H1196       H  0.65197333  0.39517843  0.06776272     0.16800
C1197       C  0.67814941  0.63055500  0.06690512    -0.12800
C1198       C  0.68546351  0.62616523  0.10346086    -0.27900
H1199       H  0.69063611  0.61609503  0.04560903     0.16300
H1200       H  0.67413794  0.64171155  0.12474988     0.16800
C1201       C  0.82750591  0.47538535  0.26395079    -0.12800
C1202       C  0.87065653  0.48345786  0.26106316    -0.27900
H1203       H  0.80419376  0.45166590  0.28563754     0.16300
H1204       H  0.89347598  0.50930486  0.24009999     0.16800
C1205       C  0.85650130  0.39101399  0.23589702    -0.12800
C1206       C  0.86070958  0.40377435  0.27233920    -0.27900
H1207       H  0.87431756  0.41928648  0.21518876     0.16300
H1208       H  0.84290241  0.37645523  0.29371371     0.16800
C1209       C  0.94088049  0.48192614  0.27344151    -0.12800
C1210       C  0.96069198  0.46241781  0.25315674    -0.27900
H1211       H  0.96123764  0.52015811  0.27827829     0.16300
H1212       H  0.94201109  0.42463198  0.24737919     0.16800
C1213       C  0.89996670  0.44485905  0.35196835    -0.12800
C1214       C  0.88332975  0.46164679  0.32582432    -0.27900
H1215       H  0.92027524  0.42995020  0.34225753     0.16300
H1216       H  0.86440538  0.47815132  0.33536371     0.16800
C1217       C  0.83928081  0.41157169  0.40367286    -0.12800
C1218       C  0.82558175  0.40629650  0.43999376    -0.27900
H1219       H  0.81388380  0.39443179  0.38147362     0.16300
H1220       H  0.85225588  0.42354438  0.46131145     0.16800
C1221       C  0.94848144  0.53185238  0.40901703    -0.12800
C1222       C  0.90485720  0.49444626  0.40841214    -0.27900
H1223       H  0.97587074  0.53077213  0.39388977     0.16300
H1224       H  0.87883115  0.49870818  0.42294416     0.16800
C1225       C  0.91459785  0.38541058  0.41098557    -0.12800
C1226       C  0.91867106  0.42793066  0.41624534    -0.27900
H1227       H  0.89307532  0.36241542  0.38835005     0.16300
H1228       H  0.94174688  0.45085868  0.43829229     0.16800
C1229       C  0.82991409  0.56737916  0.57014886    -0.12800
C1230       C  0.81287454  0.58496416  0.59570882    -0.27900
H1231       H  0.80861937  0.53227483  0.55826467     0.16300
H1232       H  0.83619434  0.62061687  0.60651731     0.16800
C1233       C  0.73962340  0.47409088  0.59623167    -0.12800
C1234       C  0.73123875  0.50956958  0.59399176    -0.27900
H1235       H  0.76857746  0.47876234  0.61261563     0.16300
H1236       H  0.70254548  0.50325385  0.57614017     0.16800
C1237       C  0.73893009  0.58656047  0.59647344    -0.12800
C1238       C  0.75759404  0.62344640  0.57238504    -0.27900
H1239       H  0.70272103  0.57101828  0.60439697     0.16300
H1240       H  0.79389724  0.64136638  0.56459240     0.16800
C1241       C  0.02726805  0.35161305  0.99305676    -0.12800
C1242       C  0.64759917  0.65410899  0.01224799    -0.27900
H1243       H  0.71815700  0.36922717  0.00109718     0.16300
H1244       H  0.94529227  0.64176691  0.99741758     0.16800
C1245       C  0.76200829  0.56143312  0.65290417    -0.12800
C1246       C  0.78355289  0.54595416  0.67527891    -0.27900
H1247       H  0.74608417  0.57905008  0.66657167     0.16300
H1248       H  0.80052296  0.52903144  0.66246084     0.16800
C1249       C  0.99903506  0.63535196  0.92544892    -0.12800
C1250       C  0.95868115  0.59413175  0.93095683    -0.27900
H1251       H  0.02241758  0.63457782  0.90464935     0.16300
H1252       H  0.93374530  0.59086393  0.95178197     0.16800
C1253       C  0.74534143  0.36963069  0.89349778    -0.12800
C1254       C  0.73443566  0.36772487  0.93026615    -0.27900
H1255       H  0.71788502  0.35767117  0.87289321     0.16300
H1256       H  0.76217337  0.37967163  0.95058973     0.16800
C1257       C  0.00550181  0.41110239  0.91797460    -0.12800
C1258       C  0.99232308  0.37091002  0.93786183    -0.27900
H1259       H  0.04180604  0.43494740  0.91139077     0.16300
H1260       H  0.95560529  0.34777941  0.94378878     0.16800
C1261       C  0.80760509  0.52585062  0.73470929    -0.12800
C1262       C  0.84317405  0.54429698  0.75907263    -0.27900
H1263       H  0.79056005  0.48817361  0.72792846     0.16300
H1264       H  0.85989098  0.58130012  0.76747622     0.16800
C1265       C  0.73222920  0.53437525  0.77261344    -0.12800
C1266       C  0.73849280  0.53180562  0.73536562    -0.27900
H1267       H  0.06085608  0.58792470  0.73738156     0.16300
H1268       H  0.70820126  0.51276233  0.71753521     0.16800
C1269       C  0.81838802  0.60790035  0.72545041    -0.12800
C1270       C  0.80390283  0.63558359  0.74060206    -0.27900
H1271       H  0.85516211  0.62418524  0.71966467     0.16300
H1272       H  0.86056481  0.28164467  0.78343724     0.16800
Zn1273     Zn  0.92528150  0.75334850  0.79854098     1.49700
Zn1274     Zn  0.83874756  0.76540754  0.80068293     1.49400
Zn1275     Zn  0.89410668  0.77497726  0.87960209     1.49100
Zn1276     Zn  0.93555675  0.85520020  0.81551008     1.49500
O1277       O  0.89845659  0.78670550  0.82407305    -1.80500
O1278       O  0.87729205  0.69675062  0.76601339    -0.71100
O1279       O  0.79254070  0.74553604  0.84228224    -0.70900
O1280       O  0.92356512  0.73565070  0.89442870    -0.70400
O1281       O  0.81681513  0.70567591  0.77019830    -0.71100
O1282       O  0.94793401  0.72624969  0.83855261    -0.70700
O1283       O  0.82569166  0.74403830  0.89604716    -0.71300
O1284       O  0.95317468  0.89249493  0.86430824    -0.70700
O1285       O  0.83731200  0.81573424  0.76745729    -0.71400
O1286       O  0.93110999  0.83741075  0.90884411    -0.70800
O1287       O  0.90517991  0.87961250  0.78116079    -0.71300
O1288       O  0.99351525  0.87035552  0.78907664    -0.71200
O1289       O  0.98258984  0.80123713  0.76832490    -0.71000
C1290       C  0.83498034  0.68233013  0.75896776     0.80800
C1291       C  0.79032844  0.73664909  0.87733643     0.81300
C1292       C  0.94531498  0.72123982  0.87426655     0.80300
C1293       C  0.95110957  0.88087730  0.89878593     0.80600
C1294       C  0.86696970  0.86010618  0.76363364     0.81800
C1295       C  0.00681521  0.84668386  0.77031538     0.80800
C1296       C  0.79500267  0.90635502  0.71463484     0.01200
C1297       C  0.01298641  0.68413089  0.94183753     0.01200
Zn1298     Zn  0.95913595  0.92352299  0.51026829     1.49700
Zn1299     Zn  0.73049538  0.70814374  0.49689416     1.49400
Zn1300     Zn  0.00541433  0.67609729  0.45353074     1.49100
Zn1301     Zn  0.95891933  0.68961292  0.53016061     1.49500
O1302       O  0.99508999  0.66396304  0.50899117    -1.80500
O1303       O  0.65359962  0.90958790  0.54167026    -0.71100
O1304       O  0.76896564  0.72057884  0.45040744    -0.70900
O1305       O  0.96986388  0.93114620  0.41636046    -0.70400
O1306       O  0.71794273  0.97553581  0.56002580    -0.71100
O1307       O  0.92892477  0.88449669  0.46442285    -0.70700
O1308       O  0.71997261  0.68087961  0.40431720    -0.71300
O1309       O  0.94230235  0.71811527  0.48842659    -0.71000
O1310       O  0.74777984  0.77168085  0.51937443    -0.71400
O1311       O  0.97107718  0.70894209  0.43464750    -0.70800
O1312       O  0.67998162  0.76666198  0.52431379    -0.71300
O1313       O  0.89966489  0.96890825  0.54360966    -0.71200
O1314       O  0.90924366  0.90738386  0.54869336    -0.71000
C1315       C  0.69118082  0.93019128  0.56025978     0.80800
C1316       C  0.76132576  0.70755392  0.41615167     0.81300
C1317       C  0.93792940  0.89108454  0.42941512     0.80300
C1318       C  0.94804661  0.72341125  0.45299987     0.80600
C1319       C  0.72345184  0.78913447  0.52900783     0.81800
C1320       C  0.88787393  0.92833293  0.55748832     0.80800
C1321       C  0.89184994  0.76960021  0.38223960     0.01200
C1322       C  0.76928118  0.88811816  0.60473038     0.01200
Zn1323     Zn  0.78719437  0.94948808  0.13809697     1.49700
Zn1324     Zn  0.80313432  0.86222916  0.14944124     1.49400
Zn1325     Zn  0.75790092  0.89229244  0.21630374     1.49100
Zn1326     Zn  0.70401968  0.84546927  0.13624970     1.49500
O1327       O  0.76328111  0.88726274  0.16083108    -1.80500
O1328       O  0.84121184  0.96604669  0.10458376    -0.71100
O1329       O  0.82670221  0.84915277  0.19743588    -0.70900
O1330       O  0.78525130  0.96195841  0.23266281    -0.70400
O1331       O  0.85518410  0.90809298  0.11518976    -0.71100
O1332       O  0.80477181  0.99968706  0.17762174    -0.70700
O1333       O  0.79396662  0.86656276  0.24436674    -0.71300
O1334       O  0.65558410  0.82432308  0.17534125    -0.70700
O1335       O  0.76971649  0.80002079  0.12094047    -0.71400
O1336       O  0.68863129  0.85584929  0.23056398    -0.70800
O1337       O  0.70030118  0.78907315  0.11085915    -0.71300
O1338       O  0.68541770  0.87692804  0.09784964    -0.71200
O1339       O  0.74064117  0.95216118  0.10577215    -0.71000
C1340       C  0.86456575  0.94649706  0.09860805     0.80800
C1341       C  0.81977296  0.85141487  0.23252165     0.81300
C1342       C  0.80186045  0.00012658  0.21332327     0.80300
C1343       C  0.65277010  0.83123129  0.21018536     0.80600
C1344       C  0.72939311  0.77598178  0.10700823     0.81800
C1345       C  0.70257018  0.92079348  0.09115478     0.80800
C1346       C  0.65681456  0.99979878  0.05652744     0.01200
C1347       C  0.87284903  0.78044242  0.27420922     0.01200
C1348       C  0.93529586  0.95687037  0.06991804    -0.12800
C1349       C  0.90399664  0.97005178  0.07227875    -0.27900
H1350       H  0.92822034  0.92528703  0.08543935     0.16300
H1351       H  0.90929645  0.00100174  0.05696853     0.16800
C1352       C  0.71575027  0.73099268  0.08740189    -0.12800
C1353       C  0.67606556  0.70721317  0.06771061    -0.27900
H1354       H  0.73771943  0.71650047  0.09123944     0.16300
H1355       H  0.65825822  0.72582978  0.06120811     0.16800
C1356       C  0.68843054  0.98162333  0.06780173    -0.12800
C1357       C  0.67583850  0.93561706  0.06852794    -0.27900
H1358       H  0.72261453  0.00746827  0.07838118     0.16300
H1359       H  0.64273346  0.90838447  0.05720049     0.16800
C1360       C  0.84291766  0.83623554  0.25966104    -0.12800
C1361       C  0.84267096  0.79557122  0.25377370    -0.27900
H1362       H  0.86151469  0.85911993  0.28329312     0.16300
H1363       H  0.82137012  0.77296167  0.23078904     0.16800
C1364       C  0.81667144  0.69105383  0.26577957    -0.12800
C1365       C  0.85850844  0.73044351  0.26026028    -0.27900
H1366       H  0.79202398  0.69126476  0.28534790     0.16300
H1367       H  0.88256481  0.72674354  0.24224746     0.16800
C1368       C  0.92373970  0.81393736  0.26283215    -0.12800
C1369       C  0.93669925  0.81763929  0.22646553    -0.27900
H1370       H  0.95006094  0.83143914  0.28433961     0.16300
H1371       H  0.90974234  0.79995060  0.20543979     0.16800
C1372       C  0.88747599  0.76289439  0.33963350    -0.12800
C1373       C  0.86827720  0.78082202  0.31704176    -0.27900
H1374       H  0.90369681  0.74550376  0.32618322     0.16300
H1375       H  0.85095204  0.79751248  0.32967007     0.16800
C1376       C  0.84546542  0.74893097  0.40366477    -0.12800
C1377       C  0.80176539  0.72367192  0.39014848    -0.27900
H1378       H  0.84916542  0.75616334  0.43368610     0.16300
H1379       H  0.79549557  0.71416264  0.36062409     0.16800
C1380       C  0.90880252  0.85067559  0.40439788    -0.12800
C1381       C  0.92388892  0.82304364  0.39049833    -0.27900
H1382       H  0.87196267  0.83720491  0.40547650     0.16300
H1383       H  0.96096486  0.83712454  0.39101204     0.16800
C1384       C  0.92744630  0.74815662  0.43455741    -0.12800
C1385       C  0.91581002  0.74438461  0.39794826    -0.27900
H1386       H  0.91941236  0.76929332  0.45298431     0.16300
H1387       H  0.92329882  0.72266180  0.37969591     0.16800
C1388       C  0.84736249  0.90339951  0.58304314    -0.12800
C1389       C  0.81814572  0.91900936  0.58830935    -0.27900
H1390       H  0.83826105  0.86878302  0.59401397     0.16300
H1391       H  0.82768672  0.95335088  0.57633224     0.16800
C1392       C  0.74585985  0.83615501  0.54665459    -0.12800
C1393       C  0.74479479  0.84007303  0.58427078    -0.27900
H1394       H  0.76439154  0.86754899  0.52896171     0.16300
H1395       H  0.72703015  0.80735922  0.60066260     0.16800
C1396       C  0.74469225  0.91597772  0.59850960    -0.12800
C1397       C  0.70483118  0.89923203  0.57928315    -0.27900
H1398       H  0.76357862  0.95335218  0.60648046     0.16300
H1399       H  0.68366902  0.86153143  0.57298198     0.16800
C1400       C  0.01642334  0.68489754  0.98528645    -0.12800
C1401       C  0.64898075  0.99426373  0.01411760    -0.27900
H1402       H  0.71865299  0.69628967  0.00294775     0.16300
H1403       H  0.94086127  0.96605503  0.99636157     0.16800
C1404       C  0.77107165  0.87873806  0.64684357    -0.12800
C1405       C  0.79365833  0.91388456  0.67208046    -0.27900
H1406       H  0.75370822  0.84230700  0.65708073     0.16300
H1407       H  0.81135207  0.94998173  0.66105311     0.16800
C1408       C  0.97402113  0.95954502  0.92407766    -0.12800
C1409       C  0.97456817  0.91915211  0.92722688    -0.27900
H1410       H  0.95022629  0.95985331  0.90380864     0.16300
H1411       H  0.99629809  0.91635691  0.94809841     0.16800
C1412       C  0.74380057  0.71400864  0.89438838    -0.12800
C1413       C  0.73367089  0.71051110  0.93145137    -0.27900
H1414       H  0.71609512  0.69657776  0.87428176     0.16300
H1415       H  0.76234214  0.72783178  0.95105501     0.16800
C1416       C  0.97024425  0.69961233  0.89128268    -0.12800
C1417       C  0.97888675  0.69883384  0.92842985    -0.27900
H1418       H  0.98615720  0.68715613  0.87140714     0.16300
H1419       H  0.96358298  0.71131754  0.94885198     0.16800
C1420       C  0.81634060  0.87575076  0.72296070    -0.12800
C1421       C  0.85694064  0.89135183  0.74068217    -0.27900
H1422       H  0.79394468  0.83751087  0.71907000     0.16300
H1423       H  0.88206125  0.92923040  0.74232612     0.16800
C1424       C  0.72627013  0.89315460  0.75510556    -0.12800
C1425       C  0.74517797  0.87719919  0.73015791    -0.27900
H1426       H  0.07349560  0.91099530  0.76118366     0.16300
H1427       H  0.72456041  0.84001967  0.72180767     0.16800
C1428       C  0.82231052  0.95640641  0.73253357    -0.12800
C1429       C  0.83433231  0.96441416  0.76898530    -0.27900
H1430       H  0.83207287  0.98752066  0.71526115     0.16300
H1431       H  0.76710444  0.62188991  0.74298225     0.16800
loop_ 
_geom_bond_atom_site_label_1 
_geom_bond_atom_site_label_2 
_geom_bond_distance 
_geom_bond_site_symmetry_2 
_ccdc_geom_bond_type 
Zn1           O5   1.951       .  S
Zn1           O6   2.027       .  S
Zn1          O10   2.019       .  S
Zn1          O17   2.039       .  S
Zn2           O5   1.977       .  S
Zn2           O7   2.012       .  S
Zn2           O9   2.060       .  S
Zn2          O13   2.029       .  S
Zn3           O5   1.983       .  S
Zn3           O8   2.045       .  S
Zn3          O11   2.002       .  S
Zn3          O14   2.064       .  S
Zn4           O5   1.959       .  S
Zn4          O12   2.039       .  S
Zn4          O15   2.023       .  S
Zn4          O16   2.013       .  S
O6           C18   1.273   1_545  A
O7           C19   1.272       .  A
O8           C20   1.275       .  A
O9           C18   1.277   1_545  A
O10          C20   1.276       .  A
O11          C19   1.274       .  A
O12          C21   1.277       .  A
O13          C22   1.276       .  A
O14          C21   1.276       .  A
O15          C22   1.274       .  A
O16          C23   1.272       .  A
O17          C23   1.275       .  A
C18         C475   1.487       .  S
C19         C140   1.471       .  S
C20         C144   1.481       .  S
C21         C137   1.492       .  S
C22         C149   1.475       .  S
C23         C629   1.468       .  S
C24         C133   1.529       .  S
C24         C148   1.533       .  S
C24         C153   1.530       .  S
C24         C156   1.540       .  S
C25         C128   1.526       .  S
C25         C145   1.533       .  S
C25         C454   1.536   1_545  S
C25         C618   1.539       .  S
Zn26        O189   1.929       .  S
Zn26         O35   1.985       .  S
Zn26         O42   2.003       .  S
Zn26        O508   2.006       .  S
Zn27        O984   1.955   1_445  S
Zn27         O32   2.018       .  S
Zn27         O38   2.065       .  S
Zn27        O352   2.056   1_545  S
Zn28         O30   1.993   1_565  S
Zn28         O39   2.035   1_565  S
Zn28        O351   2.091       .  S
Zn28        O513   2.061   1_565  S
Zn29         O30   1.963       .  S
Zn29         O37   2.062       .  S
Zn29        O517   2.047       .  S
Zn29        O359   2.019   1_545  S
O30        Zn344   1.944   1_545  S
O30        Zn504   1.952       .  S
O31        Zn980   2.045   1_455  S
O31          C43   1.276       .  A
O32          C44   1.275       .  A
O33        Zn187   2.062       .  S
O33          C45   1.277       .  A
O34        Zn186   1.989       .  S
O34          C43   1.269       .  A
O35          C45   1.271       .  A
O36        Zn982   2.036   1_545  S
O36          C44   1.277       .  A
O37          C46   1.281       .  A
O38          C47   1.279       .  A
O39          C46   1.275       .  A
O40        Zn983   2.016       .  S
O40          C47   1.274   1_655  A
O41        Zn188   2.047       .  S
O41          C48   1.278       .  A
O42          C48   1.272       .  A
C43         C125   1.473       .  S
C44         C105   1.475       .  S
C45         C108   1.479       .  S
C46         C112   1.484       .  S
C47         C120   1.484       .  S
C48         C116   1.477       .  S
C49         C100   1.538       .  S
C49         C104   1.532       .  S
C49         C109   1.532       .  S
C49         C113   1.543       .  S
C50         C117   1.540       .  S
C50         C121   1.551       .  S
C50         C124   1.540       .  S
C50         C132   1.527       .  S
Zn51         O55   1.961       .  S
Zn51         O56   2.010       .  S
Zn51         O60   2.014       .  S
Zn51         O67   2.048       .  S
Zn52         O55   1.971       .  S
Zn52         O57   2.065       .  S
Zn52         O59   2.047       .  S
Zn52         O63   2.047       .  S
Zn53         O55   1.990       .  S
Zn53         O58   2.048       .  S
Zn53         O61   2.041       .  S
Zn53         O64   2.021       .  S
Zn54         O55   1.956       .  S
Zn54         O62   2.011   1_455  S
Zn54         O65   2.008       .  S
Zn54         O66   2.015       .  S
O56          C68   1.272       .  A
O57          C69   1.281       .  A
O58          C70   1.275       .  A
O59          C68   1.277       .  A
O60          C70   1.275       .  A
O61          C69   1.276       .  A
O62          C71   1.274       .  A
O63          C72   1.276       .  A
O64          C71   1.273   1_455  A
O65          C72   1.273       .  A
O66          C73   1.270       .  A
O67          C73   1.277       .  A
C68          C77   1.475       .  S
C69          C88   1.490       .  S
C70         C251   1.478       .  S
C71        C1051   1.471       .  S
C72          C80   1.483       .  S
C73          C85   1.484       .  S
C74          C84   1.538   1_655  S
C74         C129   1.542       .  S
C74        C1030   1.540       .  S
C74         C240   1.535   1_655  S
C75          C89   1.542       .  S
C75          C93   1.542       .  S
C75          C96   1.543       .  S
C75         C101   1.531       .  S
C76         C551   1.540       .  S
C76          C77   1.351       .  D
C76          H78   1.088       .  S
C77          H79   1.084       .  S
C80          C81   1.354       .  D
C80          H82   1.084       .  S
C81         C392   1.545   1_445  S
C81          H83   1.085   1_455  S
C84          C85   1.345       .  D
C84          H86   1.087       .  S
C85          H87   1.087   1_455  S
C88          C89   1.347       .  D
C88          H90   1.086       .  S
C89          H91   1.089       .  S
C92         C388   1.476       .  S
C92          C93   1.344       .  D
C92          H94   1.088       .  S
C93          H95   1.087       .  S
C96          C97   1.349       .  D
C96          H98   1.089       .  S
C97         C548   1.478       .  S
C97          H99   1.081       .  S
C100        C101   1.358       .  D
C100        H102   1.087       .  S
C101        H103   1.084       .  S
C104        C105   1.350       .  D
C104        H106   1.087       .  S
C105        H107   1.087       .  S
C108        C109   1.349       .  D
C108        H110   1.081       .  S
C109        H111   1.089       .  S
C112        C113   1.346       .  D
C112        H114   1.086       .  S
C113        H115   1.088       .  S
C116        C117   1.348       .  D
C116        H118   1.083       .  S
C117        H119   1.088       .  S
C120        C121   1.355       .  D
C120        H122   1.084       .  S
C121        H123   1.087       .  S
C124        C125   1.348       .  D
C124        H126   1.088       .  S
C125        H127   1.084       .  S
C128        C924   1.350   1_546  D
C128        H607   1.088   1_556  S
C129       C1241   1.357   1_654  D
C129       H1085   1.081       .  S
H130       C1082   1.088       .  S
H131        C606   1.086   1_556  S
C132        C133   1.349       .  D
C132        H134   1.087       .  S
C133        H135   1.087       .  S
C136        C184   1.545       .  S
C136        C137   1.347       .  D
C136        H138   1.089       .  S
C137        H139   1.084       .  S
C140        C141   1.346       .  D
C140        H142   1.087       .  S
C141        C979   1.527       .  S
C141        H143   1.087       .  S
C144        C145   1.342       .  D
C144        H146   1.084       .  S
C145        H147   1.088       .  S
C148        C149   1.347       .  D
C148        H150   1.089       .  S
C149        H151   1.086       .  S
C152        C977   1.462       .  S
C152        C153   1.345       .  D
C152       H1108   1.086       .  S
C153        H155   1.088       .  S
H154        C629   1.086       .  S
C156        C157   1.354       .  D
C156        H158   1.086       .  S
C157        C177   1.488       .  S
C157        H318   1.085       .  S
H159        C475   1.082       .  S
Zn160       O164   1.959       .  S
Zn160       O165   2.006       .  S
Zn160       O169   1.990       .  S
Zn160       O176   2.020       .  S
Zn161       O164   1.973       .  S
Zn161       O166   2.018       .  S
Zn161       O168   2.057       .  S
Zn161       O172   2.050       .  S
Zn162       O164   2.031       .  S
Zn162       O167   2.123       .  S
Zn162       O170   2.113       .  S
Zn162       O173   2.108       .  S
Zn163       O164   1.956       .  S
Zn163       O171   1.997       .  S
Zn163       O174   2.028       .  S
Zn163       O175   2.030       .  S
O165        C177   1.272       .  A
O166        C178   1.276       .  A
O167        C179   1.286       .  A
O168        C177   1.276       .  A
O169        C179   1.271       .  A
O170        C178   1.286       .  A
O171        C180   1.273       .  A
O172        C181   1.277       .  A
O173        C180   1.282       .  A
O174        C181   1.273       .  A
O175        C182   1.275       .  A
O176        C182   1.271       .  A
C178        C299   1.494       .  S
C179        C303   1.491       .  S
C180        C296   1.488       .  S
C181        C308   1.486       .  S
C182        C788   1.482       .  S
C183        C292   1.540       .  S
C183        C307   1.543       .  S
C183        C312   1.535       .  S
C183        C315   1.542       .  S
C184        C287   1.543       .  S
C184        C777   1.548       .  S
C184        C304   1.547       .  S
Zn185       O348   1.973       .  S
Zn185       O667   2.069       .  S
Zn185       O194   2.053       .  S
Zn185       O201   2.053       .  S
Zn186      O1143   1.933   1_455  S
Zn186       O191   2.018       .  S
Zn186       O197   2.005       .  S
Zn187       O189   1.996       .  S
Zn187       O672   2.091       .  S
Zn187       O198   2.068       .  S
Zn188       O189   1.954       .  S
Zn188       O196   2.005       .  S
Zn188       O676   2.038       .  S
O189       Zn663   1.936       .  S
O190      Zn1139   2.034       .  S
O190        C202   1.276   1_655  A
O191        C203   1.274       .  A
O192       Zn346   2.045       .  S
O192        C204   1.276       .  A
O193       Zn345   2.051       .  S
O193        C202   1.278       .  A
O194        C204   1.280       .  A
O195      Zn1141   2.043   1_455  S
O195        C203   1.273       .  A
O196        C205   1.273       .  A
O197        C206   1.272       .  A
O198        C205   1.282       .  A
O199      Zn1142   2.047   1_455  S
O199        C206   1.280       .  A
O200       Zn347   2.037       .  S
O200        C207   1.276       .  A
O201        C207   1.278       .  A
C202        C284   1.484       .  S
C203        C264   1.476       .  S
C204        C267   1.488       .  S
C205        C271   1.480       .  S
C206        C279   1.476       .  S
C207        C275   1.477       .  S
C208        C259   1.540       .  S
C208        C263   1.537       .  S
C208        C268   1.537       .  S
C208        C272   1.541       .  S
C209        C276   1.541       .  S
C209        C280   1.534       .  S
C209        C283   1.539       .  S
C209        C291   1.540       .  S
Zn210       O214   1.959       .  S
Zn210       O215   2.042       .  S
Zn210       O219   2.036       .  S
Zn210       O226   2.040       .  S
Zn211       O214   1.957       .  S
Zn211       O216   2.031       .  S
Zn211       O218   2.012       .  S
Zn211       O222   2.006       .  S
Zn212       O214   1.986       .  S
Zn212       O217   2.051       .  S
Zn212       O220   2.045       .  S
Zn212       O223   2.056       .  S
Zn213       O214   1.947       .  S
Zn213       O221   2.020   1_455  S
Zn213       O224   2.025       .  S
Zn213       O225   2.025       .  S
O215        C227   1.276       .  A
O216        C228   1.276       .  A
O217        C229   1.277       .  A
O218        C227   1.274       .  A
O219        C229   1.278       .  A
O220        C228   1.276       .  A
O221        C230   1.275   1_655  A
O222        C231   1.269       .  A
O223        C230   1.277       .  A
O224        C231   1.275       .  A
O225        C232   1.274       .  A
O226        C232   1.275       .  A
C227        C236   1.482       .  S
C228        C247   1.480       .  S
C229        C410   1.484       .  S
C230       C1210   1.478   1_455  S
C231        C239   1.476       .  S
C232        C244   1.480   1_455  S
C233       C1189   1.551       .  S
C233        C399   1.539   1_655  S
C233        C243   1.545   1_655  S
C233        C288   1.542       .  S
C234        C248   1.532       .  S
C234        C252   1.533       .  S
C234        C255   1.531       .  S
C234        C260   1.539       .  S
C235        C710   1.532       .  S
C235        C236   1.350       .  D
C235        H237   1.088       .  S
C236        H238   1.085       .  S
C239        C240   1.344       .  D
C239        H241   1.085       .  S
C240        H242   1.088   1_455  S
C243        C244   1.355   1_455  D
C243        H245   1.087       .  S
C244        H246   1.083       .  S
C247        C248   1.348       .  D
C247        H249   1.086       .  S
C248        H250   1.089       .  S
C251        C252   1.343       .  D
C251        H253   1.086       .  S
C252        H254   1.089       .  S
C255        C256   1.352       .  D
C255        H257   1.087       .  S
C256        C707   1.471       .  S
C256        H258   1.088       .  S
C259        C260   1.351       .  D
C259        H261   1.087       .  S
C260        H262   1.083       .  S
C263        C264   1.349       .  D
C263        H265   1.089       .  S
C264        H266   1.083       .  S
C267        C268   1.344       .  D
C267        H269   1.086       .  S
C268        H270   1.088       .  S
C271        C272   1.348       .  D
C271        H273   1.087       .  S
C272        H274   1.087       .  S
C275        C276   1.351       .  D
C275        H277   1.086       .  S
C276        H278   1.087       .  S
C279        C280   1.341       .  D
C279        H281   1.087       .  S
C280        H282   1.087       .  S
C283        C284   1.350       .  D
C283        H285   1.088       .  S
C284        H286   1.087       .  S
C287        C606   1.352   1_556  D
C287        H766   1.086       .  S
C288       C1400   1.361   1_654  D
C288       H1244   1.084   1_554  S
H289       C1241   1.084   1_554  S
H290        C765   1.087       .  S
C291        C292   1.352       .  D
C291        H293   1.087       .  S
C292        H294   1.087       .  S
C295        C343   1.549       .  S
C295        C296   1.357       .  D
C295        H297   1.086       .  S
C296        H298   1.087       .  S
C299        C300   1.356       .  D
C299        H301   1.087       .  S
C300       C1138   1.562       .  S
C300        H302   1.086       .  S
C303        C304   1.349       .  D
C303        H305   1.084       .  S
C304        H306   1.087       .  S
C307        C308   1.351       .  D
C307        H309   1.088       .  S
C308        H310   1.085       .  S
C311       C1136   1.485       .  S
C311        C312   1.347       .  D
C311       H1267   1.086       .  S
C312        H314   1.088       .  S
H313        C788   1.087       .  S
C315        C316   1.346       .  D
C315        H317   1.088       .  S
C316        C336   1.474       .  S
C316        H477   1.086       .  S
Zn319       O323   1.957       .  S
Zn319       O324   2.011       .  S
Zn319       O328   2.017       .  S
Zn319       O335   2.026       .  S
Zn320       O323   1.977       .  S
Zn320       O325   2.063       .  S
Zn320       O327   2.056       .  S
Zn320       O331   2.067       .  S
Zn321       O323   1.988       .  S
Zn321       O326   2.070       .  S
Zn321       O329   2.051       .  S
Zn321       O332   2.050       .  S
Zn322       O323   1.965       .  S
Zn322       O330   2.004       .  S
Zn322       O333   2.004       .  S
Zn322       O334   2.028       .  S
O324        C336   1.272       .  A
O325        C337   1.280       .  A
O326        C338   1.277       .  A
O327        C336   1.279       .  A
O328        C338   1.274       .  A
O329        C337   1.277       .  A
O330        C339   1.273       .  A
O331        C340   1.280       .  A
O332        C339   1.278       .  A
O333        C340   1.269       .  A
O334        C341   1.274       .  A
O335        C341   1.273       .  A
C337        C458   1.488       .  S
C338        C462   1.494       .  S
C339        C455   1.476       .  S
C340        C467   1.485       .  S
C341        C947   1.478       .  S
C342        C451   1.535       .  S
C342        C466   1.537       .  S
C342        C471   1.535       .  S
C342        C474   1.552       .  S
C343        C446   1.535       .  S
C343        C936   1.545       .  S
C343        C463   1.543       .  S
Zn344       O826   2.000       .  S
Zn344       O353   2.012       .  S
Zn344       O360   2.007       .  S
Zn345      O1302   1.962   1_455  S
Zn345       O350   2.031       .  S
Zn345       O356   2.048       .  S
Zn346       O348   1.995       .  S
Zn346       O831   2.044       .  S
Zn346       O357   2.062       .  S
Zn347       O348   1.972       .  S
Zn347       O355   2.044       .  S
Zn347       O835   2.072       .  S
O348       Zn822   1.947       .  S
O349      Zn1298   1.997   1_455  S
O349        C361   1.271       .  A
O350        C362   1.276       .  A
O351        C363   1.281       .  A
O352        C361   1.280       .  A
O353        C363   1.274       .  A
O354      Zn1300   2.068       .  S
O354        C362   1.278       .  A
O355        C364   1.278       .  A
O356        C365   1.278       .  A
O357        C364   1.279       .  A
O358      Zn1301   2.005       .  S
O358        C365   1.269   1_655  A
O359        C366   1.276       .  A
O360        C366   1.271       .  A
C361        C443   1.478       .  S
C362        C423   1.488       .  S
C363        C426   1.488       .  S
C364        C430   1.489       .  S
C365        C438   1.480       .  S
C366        C434   1.476       .  S
C367        C418   1.548       .  S
C367        C422   1.546       .  S
C367        C427   1.549       .  S
C367        C431   1.547       .  S
C368        C435   1.528       .  S
C368        C439   1.538       .  S
C368        C442   1.537       .  S
C368        C450   1.531       .  S
Zn369       O373   1.905       .  S
Zn369       O374   1.987       .  S
Zn369       O378   1.954       .  S
Zn369       O385   1.966       .  S
Zn370       O373   1.936       .  S
Zn370       O375   2.035       .  S
Zn370       O377   2.034       .  S
Zn370       O381   2.023       .  S
Zn371       O373   1.976       .  S
Zn371       O376   2.099       .  S
Zn371       O379   2.080       .  S
Zn371       O382   2.078       .  S
Zn372       O373   1.949       .  S
Zn372       O380   1.992   1_455  S
Zn372       O383   2.024       .  S
Zn372       O384   2.026       .  S
O374        C386   1.269       .  A
O375        C387   1.279       .  A
O376        C388   1.283   1_565  A
O377        C386   1.278       .  A
O378        C388   1.266   1_565  A
O379        C387   1.282       .  A
O380        C389   1.273       .  A
O381        C390   1.274       .  A
O382        C389   1.283   1_455  A
O383        C390   1.275       .  A
O384        C391   1.270       .  A
O385        C391   1.263       .  A
C386        C395   1.472       .  S
C387        C406   1.492       .  S
C389       C1369   1.477       .  S
C390        C398   1.476       .  S
C391        C403   1.453       .  S
C392       C1348   1.526       .  S
C392        C402   1.530   1_655  S
C392        C447   1.525       .  S
C393        C407   1.546       .  S
C393        C411   1.546       .  S
C393        C414   1.544       .  S
C393        C419   1.548       .  S
C394        C869   1.527       .  S
C394        C395   1.341       .  D
C394        H396   1.088       .  S
C395        H397   1.086       .  S
C398        C399   1.353       .  D
C398        H400   1.084       .  S
C399        H401   1.088   1_455  S
C402        C403   1.342       .  D
C402        H404   1.088       .  S
C403        H405   1.087       .  S
C406        C407   1.352       .  D
C406        H408   1.086       .  S
C407        H409   1.088       .  S
C410        C411   1.357       .  D
C410        H412   1.085       .  S
C411        H413   1.086       .  S
C414        C415   1.355       .  D
C414        H416   1.087       .  S
C415        C866   1.480       .  S
C415        H417   1.081       .  S
C418        C419   1.360       .  D
C418        H420   1.087       .  S
C419        H421   1.086       .  S
C422        C423   1.357       .  D
C422        H424   1.087       .  S
C423        H425   1.084       .  S
C426        C427   1.355       .  D
C426        H428   1.085       .  S
C427        H429   1.086       .  S
C430        C431   1.351       .  D
C430        H432   1.086       .  S
C431        H433   1.088       .  S
C434        C435   1.345       .  D
C434        H436   1.086       .  S
C435        H437   1.089       .  S
C438        C439   1.343       .  D
C438        H440   1.086       .  S
C439        H441   1.087       .  S
C442        C443   1.346       .  D
C442        H444   1.088       .  S
C443        H445   1.083       .  S
C446        C765   1.351   1_556  D
C446        H925   1.089   1_556  S
C447       C1082   1.345   1_664  D
C447       H1403   1.086   1_554  S
H448       C1400   1.087       .  S
H449        C924   1.086       .  S
C450        C451   1.353       .  D
C450        H452   1.088       .  S
C451        H453   1.085       .  S
C454        C455   1.345       .  D
C454        H456   1.088       .  S
C455        H457   1.082       .  S
C458        C459   1.353       .  D
C458        H460   1.086       .  S
C459       C1297   1.547       .  S
C459        H461   1.088       .  S
C462        C463   1.352       .  D
C462        H464   1.085       .  S
C463        H465   1.087       .  S
C466        C467   1.342       .  D
C466        H468   1.089       .  S
C467        H469   1.087       .  S
C470       C1295   1.471       .  S
C470        C471   1.346       .  D
C470       H1426   1.084       .  S
C471        H473   1.088       .  S
H472        C947   1.083       .  S
C474        C475   1.352       .  D
C474        H476   1.087       .  S
Zn478       O482   1.933       .  S
Zn478       O483   2.020       .  S
Zn478       O487   2.019       .  S
Zn478       O494   2.018       .  S
Zn479       O482   1.943       .  S
Zn479       O484   1.991       .  S
Zn479       O486   2.024       .  S
Zn479       O490   2.009       .  S
Zn480       O482   1.978       .  S
Zn480       O485   2.014       .  S
Zn480       O488   2.028       .  S
Zn480       O491   2.026       .  S
Zn481       O482   1.963       .  S
Zn481       O489   2.058       .  S
Zn481       O492   2.059       .  S
Zn481       O493   2.061       .  S
O483        C495   1.272       .  A
O484        C496   1.270       .  A
O485        C497   1.269       .  A
O486        C495   1.273       .  A
O487        C497   1.275       .  A
O488        C496   1.275       .  A
O489        C498   1.282       .  A
O490        C499   1.274       .  A
O491        C498   1.274       .  A
O492        C499   1.277       .  A
O493        C500   1.280       .  A
O494        C500   1.273       .  A
C495        C952   1.469   1_545  S
C496        C617   1.467       .  S
C497        C621   1.471       .  S
C498        C614   1.479       .  S
C499        C626   1.486       .  S
C500       C1106   1.487       .  S
C501        C610   1.537       .  S
C501        C625   1.541       .  S
C501        C630   1.532       .  S
C501        C633   1.547       .  S
C502        C605   1.526       .  S
C502        C931   1.530   1_545  S
C502       C1095   1.526       .  S
C502        C622   1.527       .  S
Zn503       O666   1.952       .  S
Zn503       O985   2.048       .  S
Zn503       O512   2.003       .  S
Zn503       O519   2.019       .  S
Zn504       O509   1.992       .  S
Zn504       O829   2.019       .  S
Zn504       O515   2.022       .  S
Zn505       O507   1.986   1_545  S
Zn505       O828   2.028   1_545  S
Zn505       O990   1.981       .  S
Zn505       O516   2.025       .  S
Zn506       O507   1.950   1_545  S
Zn506       O514   2.026       .  S
Zn506       O994   2.037       .  S
Zn506       O836   2.044   1_545  S
O507       Zn821   1.960       .  S
O507       Zn981   1.990   1_565  S
O508        C520   1.270       .  A
O509        C521   1.273       .  A
O510       Zn664   2.063       .  S
O510        C522   1.279       .  A
O511       Zn663   2.012       .  S
O511        C520   1.271       .  A
O512        C522   1.274       .  A
O513        C521   1.279       .  A
O514        C523   1.275       .  A
O515        C524   1.274       .  A
O516        C523   1.271       .  A
O517        C524   1.275       .  A
O518       Zn665   2.014       .  S
O518        C525   1.271       .  A
O519        C525   1.273       .  A
C520        C602   1.470       .  S
C521        C582   1.472       .  S
C522        C585   1.474       .  S
C523        C589   1.478       .  S
C524        C597   1.488       .  S
C525        C593   1.462       .  S
C526        C577   1.530       .  S
C526        C581   1.538       .  S
C526        C586   1.544       .  S
C526        C590   1.536       .  S
C527        C594   1.528       .  S
C527        C598   1.541       .  S
C527        C601   1.539       .  S
C527        C609   1.533       .  S
Zn528       O532   1.959       .  S
Zn528       O533   2.033       .  S
Zn528       O537   2.012       .  S
Zn528       O544   2.020       .  S
Zn529       O532   1.959       .  S
Zn529       O534   2.032       .  S
Zn529       O536   2.037       .  S
Zn529       O540   2.012       .  S
Zn530       O532   1.985       .  S
Zn530       O535   2.020       .  S
Zn530       O538   2.035       .  S
Zn530       O541   2.056       .  S
Zn531       O532   1.950       .  S
Zn531       O539   2.018       .  S
Zn531       O542   2.020       .  S
Zn531       O543   2.036       .  S
O533        C545   1.274       .  A
O534        C546   1.276       .  A
O535        C547   1.274       .  A
O536        C545   1.276       .  A
O537        C547   1.274       .  A
O538        C546   1.274       .  A
O539        C548   1.273       .  A
O540        C549   1.272       .  A
O541        C548   1.276       .  A
O542        C549   1.275       .  A
O543        C550   1.275       .  A
O544        C550   1.273       .  A
C545        C554   1.486       .  S
C546        C565   1.480       .  S
C547        C728   1.470       .  S
C549        C557   1.475       .  S
C550        C562   1.478       .  S
C551        C717   1.550       .  S
C551        C561   1.544       .  S
C551        C606   1.538       .  S
C552        C566   1.534       .  S
C552        C570   1.533       .  S
C552        C573   1.534       .  S
C552        C578   1.530       .  S
C553       C1028   1.537       .  S
C553        C554   1.349       .  D
C553        H555   1.088       .  S
C554        H556   1.086       .  S
C557        C558   1.347       .  D
C557        H559   1.085       .  S
C558        C869   1.536   1_545  S
C558        H560   1.086       .  S
C561        C562   1.355       .  D
C561        H563   1.087       .  S
C562        H564   1.084       .  S
C565        C566   1.345       .  D
C565        H567   1.086       .  S
C566        H568   1.089       .  S
C569        C865   1.477   1_545  S
C569        C570   1.345       .  D
C569        H571   1.086       .  S
C570        H572   1.089       .  S
C573        C574   1.347       .  D
C573        H575   1.087       .  S
C574       C1025   1.474       .  S
C574        H576   1.088       .  S
C577        C578   1.351       .  D
C577        H579   1.087       .  S
C578        H580   1.087       .  S
C581        C582   1.351       .  D
C581        H583   1.087       .  S
C582        H584   1.083       .  S
C585        C586   1.352       .  D
C585        H587   1.085       .  S
C586        H588   1.087       .  S
C589        C590   1.344       .  D
C589        H591   1.086       .  S
C590        H592   1.089       .  S
C593        C594   1.350       .  D
C593        H595   1.086       .  S
C594        H596   1.087       .  S
C597        C598   1.346       .  D
C597        H599   1.086       .  S
C598        H600   1.089       .  S
C601        C602   1.348       .  D
C601        H603   1.089       .  S
C602        H604   1.079       .  S
C605       C1401   1.346   1_546  D
C605       H1084   1.088   1_556  S
H608       C1083   1.085   1_556  S
C609        C610   1.353       .  D
C609        H611   1.088       .  S
C610        H612   1.087       .  S
C613        C661   1.531       .  S
C613        C614   1.341       .  D
C613        H615   1.089       .  S
C614        H616   1.086       .  S
C617        C618   1.348       .  D
C617        H619   1.082       .  S
C618        H620   1.088       .  S
C621        C622   1.342       .  D
C621        H623   1.084       .  S
C622        H624   1.089       .  S
C625        C626   1.350       .  D
C625        H627   1.089       .  S
C626        H628   1.086       .  S
C629        C630   1.350       .  D
C630        H632   1.087       .  S
H631       C1106   1.086       .  S
C633        C634   1.349       .  D
C633        H635   1.087       .  S
C634        C654   1.480       .  S
C634        H795   1.080       .  S
H636        C952   1.086       .  S
Zn637       O641   1.943       .  S
Zn637       O642   1.991       .  S
Zn637       O646   2.008       .  S
Zn637       O653   2.020       .  S
Zn638       O641   1.973       .  S
Zn638       O643   2.031       .  S
Zn638       O645   2.078       .  S
Zn638       O649   2.053       .  S
Zn639       O641   1.987       .  S
Zn639       O644   2.061       .  S
Zn639       O647   2.035       .  S
Zn639       O650   2.029       .  S
Zn640       O641   1.957       .  S
Zn640       O648   2.016       .  S
Zn640       O651   2.034       .  S
Zn640       O652   2.038       .  S
O642        C654   1.271       .  A
O643        C655   1.275       .  A
O644        C656   1.278       .  A
O645        C654   1.280       .  A
O646        C656   1.273       .  A
O647        C655   1.276       .  A
O648        C657   1.276       .  A
O649        C658   1.279       .  A
O650        C657   1.273       .  A
O651        C658   1.275       .  A
O652        C659   1.274       .  A
O653        C659   1.271       .  A
C655        C776   1.482       .  S
C656        C780   1.482       .  S
C657        C773   1.474       .  S
C658        C785   1.486       .  S
C659       C1265   1.472       .  S
C660        C769   1.535       .  S
C660        C784   1.539       .  S
C660        C789   1.538       .  S
C660        C792   1.541       .  S
C661        C764   1.536       .  S
C661       C1254   1.543       .  S
C661        C781   1.533       .  S
Zn662       O825   1.967       .  S
Zn662      O1144   2.035       .  S
Zn662       O671   2.023       .  S
Zn662       O678   2.077       .  S
Zn663       O668   1.963       .  S
Zn663       O674   1.983       .  S
Zn664       O666   2.006       .  S
Zn664      O1149   2.075       .  S
Zn664       O675   2.071       .  S
Zn665       O666   1.967       .  S
Zn665       O673   2.048       .  S
Zn665      O1153   2.041       .  S
O666      Zn1140   1.943       .  S
O667        C679   1.278       .  A
O668        C680   1.268       .  A
O669       Zn823   2.047       .  S
O669        C681   1.277       .  A
O670       Zn822   1.973       .  S
O670        C679   1.267       .  A
O671        C681   1.275       .  A
O672        C680   1.282       .  A
O673        C682   1.278       .  A
O674        C683   1.267       .  A
O675        C682   1.279       .  A
O676        C683   1.274       .  A
O677       Zn824   2.023       .  S
O677        C684   1.272       .  A
O678        C684   1.279       .  A
C679        C761   1.483       .  S
C680        C741   1.477       .  S
C681        C744   1.480       .  S
C682        C748   1.490       .  S
C683        C756   1.461       .  S
C684        C752   1.492       .  S
C685        C736   1.535       .  S
C685        C740   1.545       .  S
C685        C745   1.542       .  S
C685        C749   1.545       .  S
C686        C753   1.548       .  S
C686        C757   1.534       .  S
C686        C760   1.546       .  S
C686        C768   1.532       .  S
Zn687       O691   1.926       .  S
Zn687       O692   2.007       .  S
Zn687       O696   2.005       .  S
Zn687       O703   2.014       .  S
Zn688       O691   1.951       .  S
Zn688       O693   2.037       .  S
Zn688       O695   2.052       .  S
Zn688       O699   2.032       .  S
Zn689       O691   1.976       .  S
Zn689       O694   2.045       .  S
Zn689       O697   2.033       .  S
Zn689       O700   2.016       .  S
Zn690       O691   1.967       .  S
Zn690       O698   2.015       .  S
Zn690       O701   2.058       .  S
Zn690       O702   2.048       .  S
O692        C704   1.273       .  A
O693        C705   1.279       .  A
O694        C706   1.273       .  A
O695        C704   1.277       .  A
O696        C706   1.273       .  A
O697        C705   1.276       .  A
O698        C707   1.274       .  A
O699        C708   1.276       .  A
O700        C707   1.274       .  A
O701        C708   1.278       .  A
O702        C709   1.277       .  A
O703        C709   1.272       .  A
C704        C713   1.477       .  S
C705        C724   1.479       .  S
C706        C887   1.480       .  S
C708        C716   1.488       .  S
C709        C721   1.474       .  S
C710        C876   1.549       .  S
C710        C720   1.543       .  S
C710        C765   1.536       .  S
C711        C725   1.535       .  S
C711        C729   1.536       .  S
C711        C732   1.532       .  S
C711        C737   1.532       .  S
C712       C1187   1.544       .  S
C712        C713   1.353       .  D
C712        H714   1.088       .  S
C713        H715   1.082       .  S
C716        C717   1.355       .  D
C716        H718   1.083       .  S
C717        H719   1.087       .  S
C720        C721   1.347       .  D
C720        H722   1.088       .  S
C721        H723   1.086       .  S
C724        C725   1.345       .  D
C724        H726   1.086       .  S
C725        H727   1.088       .  S
C728        C729   1.353       .  D
C728        H730   1.085       .  S
C729        H731   1.087       .  S
C732        C733   1.349       .  D
C732        H734   1.087       .  S
C733       C1184   1.470       .  S
C733        H735   1.083       .  S
C736        C737   1.356       .  D
C736        H738   1.087       .  S
C737        H739   1.087       .  S
C740        C741   1.345       .  D
C740        H742   1.087       .  S
C741        H743   1.080       .  S
C744        C745   1.351       .  D
C744        H746   1.083       .  S
C745        H747   1.087       .  S
C748        C749   1.352       .  D
C748        H750   1.086       .  S
C749        H751   1.087       .  S
C752        C753   1.350       .  D
C752        H754   1.085       .  S
C753        H755   1.088       .  S
C756        C757   1.346       .  D
C756        H758   1.087       .  S
C757        H759   1.087       .  S
C760        C761   1.361       .  D
C760        H762   1.085       .  S
C761        H763   1.084       .  S
C764       C1083   1.353   1_556  D
C764       H1243   1.087   1_556  S
H767       C1242   1.083       .  S
C768        C769   1.353       .  D
C768        H770   1.088       .  S
C769        H771   1.087       .  S
C772        C820   1.532       .  S
C772        C773   1.342       .  D
C772        H774   1.089       .  S
C773        H775   1.083       .  S
C776        C777   1.354       .  D
C776        H778   1.082       .  S
C777        H779   1.087       .  S
C780        C781   1.352       .  D
C780        H782   1.083       .  S
C781        H783   1.088       .  S
C784        C785   1.348       .  D
C784        H786   1.087       .  S
C785        H787   1.086       .  S
C788        C789   1.347       .  D
C789        H791   1.087       .  S
H790       C1265   1.086       .  S
C792        C793   1.352       .  D
C792        H794   1.087       .  S
C793        C813   1.478       .  S
C793        H954   1.086       .  S
Zn796       O800   1.964       .  S
Zn796       O801   2.049       .  S
Zn796       O805   2.032       .  S
Zn796       O812   2.063       .  S
Zn797       O800   1.951       .  S
Zn797       O802   2.002       .  S
Zn797       O804   2.033       .  S
Zn797       O808   2.070       .  S
Zn798       O800   1.998       .  S
Zn798       O803   2.076       .  S
Zn798       O806   2.085       .  S
Zn798       O809   2.060       .  S
Zn799       O800   1.937       .  S
Zn799       O807   2.012       .  S
Zn799       O810   2.013       .  S
Zn799       O811   1.995       .  S
O801        C813   1.275       .  A
O802        C814   1.273       .  A
O803        C815   1.280       .  A
O804        C813   1.276       .  A
O805        C815   1.277       .  A
O806        C814   1.283       .  A
O807        C816   1.275       .  A
O808        C817   1.278       .  A
O809        C816   1.276       .  A
O810        C817   1.273       .  A
O811        C818   1.270       .  A
O812        C818   1.280       .  A
C814        C935   1.482       .  S
C815        C939   1.487       .  S
C816        C932   1.484       .  S
C817        C944   1.486       .  S
C818       C1424   1.480       .  S
C819        C928   1.534       .  S
C819        C943   1.552       .  S
C819        C948   1.537       .  S
C819        C951   1.539       .  S
C820        C923   1.538       .  S
C820       C1413   1.547       .  S
C820        C940   1.550       .  S
Zn821      O1303   2.024       .  S
Zn821       O830   2.042       .  S
Zn821       O837   2.032       .  S
Zn822       O827   1.962       .  S
Zn822       O833   1.983       .  S
Zn823       O825   1.995       .  S
Zn823      O1308   2.077       .  S
Zn823       O834   2.037       .  S
Zn824       O825   1.951       .  S
Zn824       O832   1.979       .  S
Zn824      O1312   2.000       .  S
O825      Zn1299   1.955       .  S
O826        C838   1.272       .  A
O827        C839   1.266       .  A
O828        C840   1.271       .  A
O829        C838   1.270   1_545  A
O830        C840   1.277       .  A
O831        C839   1.275       .  A
O832        C841   1.272       .  A
O833        C842   1.266       .  A
O834        C841   1.276       .  A
O835        C842   1.280       .  A
O836        C843   1.276       .  A
O837        C843   1.274       .  A
C838        C920   1.475       .  S
C839        C900   1.464       .  S
C840        C903   1.482       .  S
C841        C907   1.466       .  S
C842        C915   1.482       .  S
C843        C911   1.476       .  S
C844        C895   1.520       .  S
C844        C899   1.529       .  S
C844        C904   1.535       .  S
C844        C908   1.520       .  S
C845        C912   1.541       .  S
C845        C916   1.532       .  S
C845        C919   1.530       .  S
C845        C927   1.535       .  S
Zn846       O850   1.946       .  S
Zn846       O851   2.012       .  S
Zn846       O855   2.007       .  S
Zn846       O862   1.998       .  S
Zn847       O850   1.956       .  S
Zn847       O852   2.004       .  S
Zn847       O854   2.037       .  S
Zn847       O858   2.022       .  S
Zn848       O850   1.989       .  S
Zn848       O853   2.042       .  S
Zn848       O856   2.028       .  S
Zn848       O859   2.048       .  S
Zn849       O850   1.961       .  S
Zn849       O857   2.022       .  S
Zn849       O860   2.065       .  S
Zn849       O861   2.033       .  S
O851        C863   1.272       .  A
O852        C864   1.274       .  A
O853        C865   1.272       .  A
O854        C863   1.276       .  A
O855        C865   1.272       .  A
O856        C864   1.276       .  A
O857        C866   1.275       .  A
O858        C867   1.272       .  A
O859        C866   1.276       .  A
O860        C867   1.279       .  A
O861        C868   1.275       .  A
O862        C868   1.271       .  A
C863        C872   1.479       .  S
C864        C883   1.465       .  S
C867        C875   1.489       .  S
C868        C880   1.462       .  S
C869        C879   1.533       .  S
C869        C924   1.521       .  S
C870        C884   1.525       .  S
C870        C888   1.533       .  S
C870        C891   1.532       .  S
C870        C896   1.522       .  S
C871       C1346   1.537       .  S
C871        C872   1.349       .  D
C871        H873   1.086       .  S
C872        H874   1.085   1_565  S
C875        C876   1.350       .  D
C875        H877   1.084       .  S
C876        H878   1.085       .  S
C879        C880   1.344       .  D
C879        H881   1.087       .  S
C880        H882   1.087       .  S
C883        C884   1.344       .  D
C883        H885   1.086       .  S
C884        H886   1.089       .  S
C887        C888   1.344       .  D
C887        H889   1.086       .  S
C888        H890   1.089       .  S
C891        C892   1.346       .  D
C891        H893   1.087       .  S
C892       C1343   1.469       .  S
C892        H894   1.088       .  S
C895        C896   1.338       .  D
C895        H897   1.088       .  S
C896        H898   1.087       .  S
C899        C900   1.344       .  D
C899        H901   1.087       .  S
C900        H902   1.088       .  S
C903        C904   1.343       .  D
C903        H905   1.086       .  S
C904        H906   1.089       .  S
C907        C908   1.347       .  D
C907        H909   1.086       .  S
C908        H910   1.088       .  S
C911        C912   1.349       .  D
C911        H913   1.086       .  S
C912        H914   1.087       .  S
C915        C916   1.340       .  D
C915        H917   1.087       .  S
C916        H918   1.089       .  S
C919        C920   1.347       .  D
C919        H921   1.089       .  S
C920        H922   1.084       .  S
C923       C1242   1.354   1_556  D
C923       H1402   1.087   1_556  S
H926       C1401   1.086       .  S
C927        C928   1.352       .  D
C927        H929   1.087       .  S
C928        H930   1.088       .  S
C931        C932   1.345       .  D
C931        H933   1.089       .  S
C932        H934   1.086       .  S
C935        C936   1.348       .  D
C935        H937   1.084       .  S
C936        H938   1.088       .  S
C939        C940   1.355       .  D
C939        H941   1.082       .  S
C940        H942   1.087       .  S
C943        C944   1.353       .  D
C943        H945   1.086       .  S
C944        H946   1.083       .  S
C947        C948   1.352       .  D
C948        H950   1.088       .  S
H949       C1424   1.084       .  S
C951        C952   1.346       .  D
C951        H953   1.088       .  S
Zn955       O959   1.938       .  S
Zn955       O960   2.021       .  S
Zn955       O964   2.000       .  S
Zn955       O971   2.017       .  S
Zn956       O959   1.955       .  S
Zn956       O961   1.991       .  S
Zn956       O963   2.021       .  S
Zn956       O967   2.008       .  S
Zn957       O959   1.969       .  S
Zn957       O962   2.039       .  S
Zn957       O965   2.014       .  S
Zn957       O968   2.047       .  S
Zn958       O959   1.952       .  S
Zn958       O966   2.035       .  S
Zn958       O969   2.054       .  S
Zn958       O970   2.016   1_655  S
O960        C972   1.271       .  A
O961        C973   1.269       .  A
O962        C974   1.274       .  A
O963        C972   1.272       .  A
O964        C974   1.273       .  A
O965        C973   1.275       .  A
O966        C975   1.277       .  A
O967        C976   1.273       .  A
O968        C975   1.276       .  A
O969        C976   1.277       .  A
O970        C977   1.273       .  A
O971        C977   1.273   1_655  A
C972       C1429   1.471   1_545  S
C973       C1094   1.468       .  S
C974       C1098   1.476       .  S
C975       C1091   1.483       .  S
C976       C1103   1.480       .  S
C978       C1087   1.543       .  S
C978       C1102   1.542       .  S
C978       C1107   1.538       .  S
C978       C1110   1.539       .  S
C979       C1082   1.529       .  S
C979       C1408   1.531   1_445  S
C979       C1099   1.527       .  S
Zn980      O1143   1.955       .  S
Zn980       O989   2.000       .  S
Zn980       O996   2.045       .  S
Zn981       O986   2.037       .  S
Zn981      O1306   2.066   1_545  S
Zn981       O992   2.076       .  S
Zn982       O984   1.975   1_455  S
Zn982      O1305   2.065   1_455  S
Zn982       O993   2.025   1_465  S
Zn983       O984   1.933   1_545  S
Zn983       O991   2.034       .  S
Zn983      O1313   2.039   1_545  S
O984      Zn1298   1.928       .  S
O985        C997   1.273       .  A
O986        C998   1.277       .  A
O987      Zn1141   2.025       .  S
O987        C999   1.276       .  A
O988      Zn1140   2.007       .  S
O988        C997   1.270       .  A
O989        C999   1.273       .  A
O990        C998   1.269       .  A
O991       C1000   1.279       .  A
O992       C1001   1.279       .  A
O993       C1000   1.273       .  A
O994       C1001   1.277       .  A
O995      Zn1142   2.053       .  S
O995       C1002   1.277       .  A
O996       C1002   1.275       .  A
C997       C1079   1.485       .  S
C998       C1059   1.469       .  S
C999       C1062   1.469       .  S
C1000      C1066   1.480       .  S
C1001      C1074   1.490       .  S
C1002      C1070   1.481       .  S
C1003      C1054   1.537       .  S
C1003      C1058   1.529       .  S
C1003      C1063   1.532       .  S
C1003      C1067   1.534       .  S
C1004      C1071   1.542       .  S
C1004      C1075   1.556       .  S
C1004      C1078   1.542       .  S
C1004      C1086   1.545       .  S
Zn1005     O1009   1.912       .  S
Zn1005     O1010   2.008       .  S
Zn1005     O1014   1.964       .  S
Zn1005     O1021   1.999       .  S
Zn1006     O1009   1.943       .  S
Zn1006     O1011   2.036       .  S
Zn1006     O1013   2.060       .  S
Zn1006     O1017   2.030       .  S
Zn1007     O1009   1.985       .  S
Zn1007     O1012   2.104       .  S
Zn1007     O1015   2.074       .  S
Zn1007     O1018   2.075       .  S
Zn1008     O1009   1.953       .  S
Zn1008     O1016   1.975       .  S
Zn1008     O1019   2.002       .  S
Zn1008     O1020   2.013       .  S
O1010      C1022   1.273       .  A
O1011      C1023   1.279       .  A
O1012      C1024   1.284       .  A
O1013      C1022   1.280       .  A
O1014      C1024   1.268       .  A
O1015      C1023   1.280       .  A
O1016      C1025   1.270       .  A
O1017      C1026   1.275       .  A
O1018      C1025   1.281       .  A
O1019      C1026   1.269       .  A
O1020      C1027   1.268       .  A
O1021      C1027   1.267       .  A
C1022      C1031   1.480       .  S
C1023      C1042   1.493       .  S
C1024      C1205   1.479       .  S
C1026      C1034   1.465       .  S
C1027      C1039   1.461       .  S
C1028      C1194   1.545       .  S
C1028      C1038   1.535       .  S
C1028      C1083   1.532       .  S
C1029      C1043   1.546       .  S
C1029      C1047   1.541       .  S
C1029      C1050   1.536       .  S
C1029      C1055   1.538       .  S
C1030      C1031   1.346       .  D
C1030      H1032   1.088       .  S
C1031      H1033   1.087       .  S
C1034      C1035   1.351       .  D
C1034      H1036   1.086       .  S
C1035      C1346   1.539   1_545  S
C1035      H1037   1.087       .  S
C1038      C1039   1.343       .  D
C1038      H1040   1.088       .  S
C1039      H1041   1.086       .  S
C1042      C1043   1.349       .  D
C1042      H1044   1.086       .  S
C1043      H1045   1.088       .  S
C1046      C1342   1.480       .  S
C1046      C1047   1.351       .  D
C1046      H1048   1.085       .  S
C1047      H1049   1.087       .  S
C1050      C1051   1.352       .  D
C1050      H1052   1.087       .  S
C1051      H1053   1.082       .  S
C1054      C1055   1.359       .  D
C1054      H1056   1.087       .  S
C1055      H1057   1.086       .  S
C1058      C1059   1.356       .  D
C1058      H1060   1.087       .  S
C1059      H1061   1.082       .  S
C1062      C1063   1.347       .  D
C1062      H1064   1.085       .  S
C1063      H1065   1.086       .  S
C1066      C1067   1.342       .  D
C1066      H1068   1.086       .  S
C1067      H1069   1.089       .  S
C1070      C1071   1.352       .  D
C1070      H1072   1.086       .  S
C1071      H1073   1.087       .  S
C1074      C1075   1.359       .  D
C1074      H1076   1.079       .  S
C1075      H1077   1.086       .  S
C1078      C1079   1.352       .  D
C1078      H1080   1.088       .  S
C1079      H1081   1.086       .  S
C1086      C1087   1.354       .  D
C1086      H1088   1.087       .  S
C1087      H1089   1.087       .  S
C1090      C1138   1.544       .  S
C1090      C1091   1.349   1_455  D
C1090      H1092   1.089       .  S
C1091      H1093   1.081       .  S
C1094      C1095   1.343       .  D
C1094      H1096   1.087       .  S
C1095      H1097   1.087       .  S
C1098      C1099   1.345   1_655  D
C1098      H1100   1.084       .  S
C1099      H1101   1.089       .  S
C1102      C1103   1.350       .  D
C1102      H1104   1.087       .  S
C1103      H1105   1.086       .  S
C1106      C1107   1.346       .  D
C1107      H1109   1.089       .  S
C1110      C1111   1.350       .  D
C1110      H1112   1.087       .  S
C1111      C1131   1.471       .  S
C1111      H1272   1.083       .  S
H1113      C1429   1.086       .  S
Zn1114     O1118   1.927       .  S
Zn1114     O1119   2.001       .  S
Zn1114     O1123   2.014       .  S
Zn1114     O1130   2.032       .  S
Zn1115     O1118   1.967       .  S
Zn1115     O1120   2.013       .  S
Zn1115     O1122   2.049       .  S
Zn1115     O1126   2.059       .  S
Zn1116     O1118   1.988       .  S
Zn1116     O1121   2.122       .  S
Zn1116     O1124   2.075       .  S
Zn1116     O1127   2.057       .  S
Zn1117     O1118   1.934       .  S
Zn1117     O1125   1.995       .  S
Zn1117     O1128   1.990       .  S
Zn1117     O1129   2.027       .  S
O1119      C1131   1.272       .  A
O1120      C1132   1.274       .  A
O1121      C1133   1.286       .  A
O1122      C1131   1.278       .  A
O1123      C1133   1.273       .  A
O1124      C1132   1.283       .  A
O1125      C1134   1.275       .  A
O1126      C1135   1.278       .  A
O1127      C1134   1.277       .  A
O1128      C1135   1.269       .  A
O1129      C1136   1.273   1_655  A
O1130      C1136   1.276   1_655  A
C1132      C1253   1.485       .  S
C1133      C1257   1.494   1_655  S
C1134      C1250   1.480       .  S
C1135      C1262   1.477       .  S
C1137      C1246   1.531       .  S
C1137      C1261   1.538       .  S
C1137      C1266   1.535       .  S
C1137      C1269   1.551       .  S
C1138      C1241   1.548       .  S
C1138      C1258   1.558   1_455  S
Zn1139     O1302   1.957       .  S
Zn1139     O1148   2.024       .  S
Zn1139     O1155   2.032       .  S
Zn1140     O1145   1.976       .  S
Zn1140     O1151   2.005       .  S
Zn1141     O1143   1.966       .  S
Zn1141     O1152   2.028       .  S
Zn1142     O1143   1.952       .  S
Zn1142     O1150   2.048       .  S
O1144      C1156   1.278       .  A
O1145      C1157   1.270       .  A
O1146     Zn1300   2.040   1_655  S
O1146      C1158   1.274       .  A
O1147     Zn1299   1.989       .  S
O1147      C1156   1.270       .  A
O1148      C1158   1.276       .  A
O1149      C1157   1.279       .  A
O1150      C1159   1.280       .  A
O1151      C1160   1.270       .  A
O1152      C1159   1.275       .  A
O1153      C1160   1.279       .  A
O1154     Zn1301   2.018       .  S
O1154      C1161   1.271       .  A
O1155      C1161   1.273       .  A
C1156      C1238   1.472       .  S
C1157      C1218   1.474       .  S
C1158      C1221   1.477       .  S
C1159      C1225   1.482       .  S
C1160      C1233   1.481       .  S
C1161      C1229   1.478       .  S
C1162      C1213   1.532       .  S
C1162      C1217   1.536       .  S
C1162      C1222   1.532       .  S
C1162      C1226   1.536       .  S
C1163      C1230   1.545       .  S
C1163      C1234   1.536       .  S
C1163      C1237   1.531       .  S
C1163      C1245   1.531       .  S
Zn1164     O1168   1.942       .  S
Zn1164     O1169   2.021       .  S
Zn1164     O1173   2.002       .  S
Zn1164     O1180   2.019       .  S
Zn1165     O1168   1.964       .  S
Zn1165     O1170   2.055       .  S
Zn1165     O1172   2.058       .  S
Zn1165     O1176   2.040       .  S
Zn1166     O1168   1.988       .  S
Zn1166     O1171   2.053       .  S
Zn1166     O1174   2.035       .  S
Zn1166     O1177   2.026       .  S
Zn1167     O1168   1.963       .  S
Zn1167     O1175   2.002       .  S
Zn1167     O1178   2.022       .  S
Zn1167     O1179   2.027       .  S
O1169      C1181   1.274       .  A
O1170      C1182   1.281       .  A
O1171      C1183   1.275       .  A
O1172      C1181   1.278       .  A
O1173      C1183   1.273       .  A
O1174      C1182   1.276       .  A
O1175      C1184   1.272       .  A
O1176      C1185   1.276       .  A
O1177      C1184   1.273       .  A
O1178      C1185   1.274       .  A
O1179      C1186   1.272       .  A
O1180      C1186   1.272       .  A
C1181      C1190   1.482       .  S
C1182      C1201   1.484       .  S
C1183      C1364   1.479       .  S
C1185      C1193   1.483       .  S
C1186      C1198   1.469       .  S
C1187      C1353   1.539       .  S
C1187      C1197   1.535       .  S
C1187      C1242   1.531       .  S
C1188      C1202   1.537       .  S
C1188      C1206   1.544       .  S
C1188      C1209   1.545       .  S
C1188      C1214   1.532       .  S
C1189      C1190   1.356       .  D
C1189      H1191   1.088       .  S
C1190      H1192   1.083       .  S
C1193      C1194   1.354       .  D
C1193      H1195   1.084       .  S
C1194      H1196   1.086       .  S
C1197      C1198   1.347       .  D
C1197      H1199   1.087       .  S
C1198      H1200   1.087       .  S
C1201      C1202   1.346       .  D
C1201      H1203   1.086       .  S
C1202      H1204   1.089       .  S
C1205      C1206   1.346       .  D
C1205      H1207   1.088       .  S
C1206      H1208   1.087       .  S
C1209      C1210   1.350       .  D
C1209      H1211   1.088       .  S
C1210      H1212   1.081       .  S
C1213      C1214   1.350       .  D
C1213      H1215   1.087       .  S
C1214      H1216   1.087       .  S
C1217      C1218   1.349       .  D
C1217      H1219   1.087       .  S
C1218      H1220   1.088       .  S
C1221      C1222   1.342       .  D
C1221      H1223   1.086       .  S
C1222      H1224   1.089       .  S
C1225      C1226   1.346       .  D
C1225      H1227   1.086       .  S
C1226      H1228   1.088       .  S
C1229      C1230   1.354       .  D
C1229      H1231   1.080       .  S
C1230      H1232   1.088       .  S
C1233      C1234   1.341       .  D
C1233      H1235   1.084       .  S
C1234      H1236   1.090       .  S
C1237      C1238   1.344       .  D
C1237      H1239   1.089       .  S
C1238      H1240   1.084       .  S
C1245      C1246   1.351       .  D
C1245      H1247   1.089       .  S
C1246      H1248   1.085       .  S
C1249      C1297   1.532   1_655  S
C1249      C1250   1.345       .  D
C1249      H1251   1.090   1_655  S
C1250      H1252   1.082       .  S
C1253      C1254   1.348       .  D
C1253      H1255   1.087       .  S
C1254      H1256   1.087       .  S
C1257      C1258   1.355   1_455  D
C1257      H1259   1.083       .  S
C1258      H1260   1.086       .  S
C1261      C1262   1.348       .  D
C1261      H1263   1.088       .  S
C1262      H1264   1.084       .  S
C1265      C1266   1.349       .  D
C1266      H1268   1.087       .  S
C1269      C1270   1.350       .  D
C1269      H1271   1.087       .  S
C1270      C1290   1.488       .  S
C1270      H1431   1.085       .  S
Zn1273     O1277   1.970       .  S
Zn1273     O1278   2.074       .  S
Zn1273     O1282   2.036       .  S
Zn1273     O1289   2.048       .  S
Zn1274     O1277   1.953       .  S
Zn1274     O1279   1.992       .  S
Zn1274     O1281   2.017       .  S
Zn1274     O1285   2.059       .  S
Zn1275     O1277   2.002       .  S
Zn1275     O1280   2.077       .  S
Zn1275     O1283   2.067       .  S
Zn1275     O1286   2.048       .  S
Zn1276     O1277   1.949       .  S
Zn1276     O1284   2.027       .  S
Zn1276     O1287   2.021       .  S
Zn1276     O1288   1.985       .  S
O1278      C1290   1.279       .  A
O1279      C1291   1.273       .  A
O1280      C1292   1.280       .  A
O1281      C1290   1.272       .  A
O1282      C1292   1.277       .  A
O1283      C1291   1.282       .  A
O1284      C1293   1.275       .  A
O1285      C1294   1.276       .  A
O1286      C1293   1.274       .  A
O1287      C1294   1.272       .  A
O1288      C1295   1.271   1_655  A
O1289      C1295   1.279   1_655  A
C1291      C1412   1.473       .  S
C1292      C1416   1.491       .  S
C1293      C1409   1.483       .  S
C1294      C1421   1.488       .  S
C1296      C1405   1.538       .  S
C1296      C1420   1.546       .  S
C1296      C1425   1.541       .  S
C1296      C1428   1.545       .  S
C1297      C1400   1.549       .  S
C1297      C1417   1.546   1_455  S
Zn1298     O1307   1.998       .  S
Zn1298     O1314   2.010       .  S
Zn1299     O1304   2.003       .  S
Zn1299     O1310   2.019       .  S
Zn1300     O1302   2.004   1_455  S
Zn1300     O1311   2.074   1_455  S
Zn1301     O1302   1.961       .  S
Zn1301     O1309   1.992       .  S
O1303      C1315   1.275       .  A
O1304      C1316   1.272       .  A
O1305      C1317   1.278       .  A
O1306      C1315   1.280       .  A
O1307      C1317   1.271       .  A
O1308      C1316   1.278       .  A
O1309      C1318   1.271       .  A
O1310      C1319   1.271       .  A
O1311      C1318   1.281       .  A
O1312      C1319   1.268       .  A
O1313      C1320   1.278       .  A
O1314      C1320   1.271       .  A
C1315      C1397   1.487       .  S
C1316      C1377   1.496       .  S
C1317      C1380   1.473       .  S
C1318      C1384   1.478       .  S
C1319      C1392   1.463       .  S
C1320      C1388   1.481       .  S
C1321      C1372   1.527       .  S
C1321      C1376   1.543       .  S
C1321      C1381   1.539       .  S
C1321      C1385   1.540       .  S
C1322      C1389   1.532       .  S
C1322      C1393   1.533       .  S
C1322      C1396   1.545       .  S
C1322      C1404   1.537       .  S
Zn1323     O1327   1.943       .  S
Zn1323     O1328   1.999       .  S
Zn1323     O1332   2.008       .  S
Zn1323     O1339   1.996       .  S
Zn1324     O1327   1.954       .  S
Zn1324     O1329   2.029       .  S
Zn1324     O1331   2.018       .  S
Zn1324     O1335   2.021       .  S
Zn1325     O1327   1.993       .  S
Zn1325     O1330   2.059       .  S
Zn1325     O1333   2.076       .  S
Zn1325     O1336   2.062       .  S
Zn1326     O1327   1.954       .  S
Zn1326     O1334   1.972       .  S
Zn1326     O1337   2.007       .  S
Zn1326     O1338   2.009       .  S
O1328      C1340   1.271       .  A
O1329      C1341   1.276       .  A
O1330      C1342   1.277   1_565  A
O1331      C1340   1.277       .  A
O1332      C1342   1.273   1_565  A
O1333      C1341   1.280       .  A
O1334      C1343   1.270       .  A
O1335      C1344   1.271       .  A
O1336      C1343   1.280       .  A
O1337      C1344   1.272       .  A
O1338      C1345   1.267       .  A
O1339      C1345   1.271       .  A
C1340      C1349   1.472       .  S
C1341      C1360   1.489       .  S
C1344      C1352   1.476       .  S
C1345      C1357   1.476       .  S
C1346      C1356   1.531       .  S
C1346      C1401   1.526       .  S
C1347      C1361   1.538       .  S
C1347      C1365   1.535       .  S
C1347      C1368   1.536       .  S
C1347      C1373   1.530       .  S
C1348      C1349   1.341       .  D
C1348      H1350   1.089       .  S
C1349      H1351   1.085   1_565  S
C1352      C1353   1.349       .  D
C1352      H1354   1.083       .  S
C1353      H1355   1.087       .  S
C1356      C1357   1.343       .  D
C1356      H1358   1.087   1_565  S
C1357      H1359   1.085       .  S
C1360      C1361   1.350       .  D
C1360      H1362   1.085       .  S
C1361      H1363   1.089       .  S
C1364      C1365   1.345       .  D
C1364      H1366   1.086       .  S
C1365      H1367   1.089       .  S
C1368      C1369   1.347       .  D
C1368      H1370   1.087       .  S
C1369      H1371   1.088       .  S
C1372      C1373   1.352       .  D
C1372      H1374   1.087       .  S
C1373      H1375   1.086       .  S
C1376      C1377   1.355       .  D
C1376      H1378   1.086       .  S
C1377      H1379   1.084       .  S
C1380      C1381   1.346       .  D
C1380      H1382   1.085       .  S
C1381      H1383   1.089       .  S
C1384      C1385   1.349       .  D
C1384      H1386   1.086       .  S
C1385      H1387   1.087       .  S
C1388      C1389   1.344       .  D
C1388      H1390   1.087       .  S
C1389      H1391   1.088       .  S
C1392      C1393   1.345       .  D
C1392      H1394   1.086       .  S
C1393      H1395   1.088       .  S
C1396      C1397   1.352       .  D
C1396      H1398   1.087       .  S
C1397      H1399   1.085       .  S
C1404      C1405   1.345       .  D
C1404      H1406   1.087       .  S
C1405      H1407   1.087       .  S
C1408      C1409   1.345       .  D
C1408      H1410   1.089       .  S
C1409      H1411   1.086       .  S
C1412      C1413   1.349       .  D
C1412      H1414   1.080       .  S
C1413      H1415   1.088       .  S
C1416      C1417   1.358       .  D
C1416      H1418   1.087       .  S
C1417      H1419   1.086       .  S
C1420      C1421   1.351       .  D
C1420      H1422   1.088       .  S
C1421      H1423   1.084       .  S
C1424      C1425   1.347       .  D
C1425      H1427   1.088       .  S
C1428      C1429   1.344       .  D
C1428      H1430   1.088       .  S
