geometry optimzed in LAMMPS
_audit_creation_date              2020-11-30 
_audit_creation_method            'lammps2cif' 
_symmetry_space_group_name_H-M    'P1' 
_symmetry_Int_Tables_number       1 
_symmetry_cell_setting            triclinic 
loop_ 
_symmetry_equiv_pos_as_xyz 
  x,y,z 
_cell_length_a                    22.18307564 
_cell_length_b                    22.16233857493085 
_cell_length_c                    89.4654428166015 
_cell_angle_alpha                 89.91591303246597 
_cell_angle_beta                  89.89552932720424 
_cell_angle_gamma                 90.13843040908269 
loop_ 
_atom_site_label 
_atom_site_type_symbol 
_atom_site_fract_x 
_atom_site_fract_y 
_atom_site_fract_z 
_atom_site_charge 
C1          C  0.71277801  0.55919436  0.81563087     0.87200
C2          C  0.70997920  0.62626502  0.81164840    -0.53000
C3          C  0.67419885  0.65956460  0.82085798     0.10200
C4          C  0.64118826  0.62109206  0.83280299     0.21100
C5          C  0.73026632  0.55739298  0.83228329    -0.53700
C6          C  0.69214930  0.58915049  0.84148065     0.10300
C7          C  0.64703532  0.53799910  0.81508465    -0.53300
C8          C  0.60930712  0.57072276  0.82395056     0.10800
H9          H  0.73592337  0.64645337  0.80262469     0.15300
H10         H  0.60963622  0.64671425  0.84000205     0.01100
H11         H  0.76942687  0.53317804  0.83635170     0.15600
H12         H  0.63124956  0.50173272  0.80792200     0.15400
C13         C  0.24403765  0.55904733  0.81574898     0.87200
C14         C  0.30972592  0.53781588  0.81530754    -0.53000
C15         C  0.34675682  0.56612662  0.82524627     0.10200
C16         C  0.31309211  0.61206016  0.83526955     0.21100
C17         C  0.22333096  0.54908807  0.83184309    -0.53700
C18         C  0.25884497  0.57678050  0.84214145     0.10300
C19         C  0.24728266  0.62801597  0.81393832    -0.53300
C20         C  0.28412551  0.65665367  0.82402608     0.10800
H21         H  0.32606973  0.50486577  0.80729836     0.15300
H22         H  0.34320094  0.63340057  0.84359871     0.01100
H23         H  0.18346989  0.52318832  0.83485777     0.15600
H24         H  0.22175849  0.65221240  0.80551335     0.15400
C25         C  0.71703540  0.02472054  0.81783467     0.87200
C26         C  0.65045885  0.04103394  0.81634573    -0.53000
C27         C  0.61329590  0.00854309  0.82543728     0.10200
C28         C  0.64702051  0.96331431  0.83565703     0.21100
C29         C  0.73201060  0.03332668  0.83441852    -0.53700
C30         C  0.69525836  0.00177473  0.84389238     0.10300
C31         C  0.71882236  0.95647510  0.81516935    -0.53300
C32         C  0.68290097  0.92336415  0.82454002     0.10800
H33         H  0.63372217  0.07375273  0.80831249     0.15300
H34         H  0.61722989  0.93774225  0.84338494     0.01100
H35         H  0.76857867  0.06186506  0.83832318     0.15600
H36         H  0.74511558  0.93608610  0.80627525     0.15400
C37         C  0.24674353  0.02135753  0.81608168     0.87200
C38         C  0.24175779  0.95290717  0.81372999    -0.53000
C39         C  0.28036029  0.92025760  0.82235227     0.10200
C40         C  0.32120798  0.95980495  0.83240386     0.21100
C41         C  0.23739268  0.02975468  0.83302585    -0.53700
C42         C  0.27765429  0.99879987  0.84193116     0.10300
C43         C  0.31338610  0.03688775  0.81328114    -0.53300
C44         C  0.35227164  0.00478323  0.82187957     0.10800
H45         H  0.20976897  0.93186025  0.80617444     0.15300
H46         H  0.35579349  0.93376612  0.83826144     0.01100
H47         H  0.20100921  0.05712380  0.83741125     0.15600
H48         H  0.32844468  0.07108801  0.80539509     0.15400
C49         C  0.70427683  0.56213279  0.93314667     0.87200
C50         C  0.63661713  0.54757674  0.93303175    -0.53000
C51         C  0.60337375  0.58456334  0.92404345     0.10200
C52         C  0.64177055  0.63186287  0.91565719     0.21100
C53         C  0.72378199  0.55892101  0.91669418    -0.53700
C54         C  0.69017920  0.59428032  0.90724145     0.10300
C55         C  0.70858115  0.62907506  0.93714601    -0.53300
C56         C  0.67710473  0.66621695  0.92791423     0.10800
H57         H  0.61646469  0.51169059  0.93964927     0.15300
H58         H  0.61383241  0.66168960  0.90856577     0.01100
H59         H  0.76082885  0.53086006  0.91293064     0.15600
H60         H  0.73586084  0.64600483  0.94631271     0.15400
C61         C  0.23986668  0.56803929  0.93243616     0.87200
C62         C  0.23864677  0.63634269  0.93542086    -0.53000
C63         C  0.26984948  0.67053507  0.92520413     0.10200
C64         C  0.30074944  0.63160306  0.91308978     0.21100
C65         C  0.21772711  0.56029935  0.91638342    -0.53700
C66         C  0.24979961  0.59296504  0.90618260     0.10300
C67         C  0.30681164  0.55197982  0.93180656    -0.53300
C68         C  0.33977206  0.58629946  0.92207863     0.10800
H69         H  0.21582666  0.65567644  0.94502569     0.15300
H70         H  0.32546275  0.65829987  0.90458887     0.01100
H71         H  0.18167400  0.52960020  0.91324655     0.15600
H72         H  0.32723885  0.51810460  0.93895791     0.15400
C73         C  0.71956167  0.03375485  0.93498545     0.87200
C74         C  0.73653359  0.03883921  0.91838130    -0.53000
C75         C  0.70279830  0.00261252  0.90923336     0.10200
C76         C  0.65582124  0.96371411  0.91777705     0.21100
C77         C  0.65182090  0.04705671  0.93534518    -0.53700
C78         C  0.61774366  0.01004096  0.92655751     0.10300
C79         C  0.72508367  0.96618652  0.93879805    -0.53300
C80         C  0.69180492  0.92921838  0.92980358     0.10800
H81         H  0.77087376  0.06955084  0.91418455     0.15300
H82         H  0.62911559  0.93316274  0.91052712     0.01100
H83         H  0.63239867  0.08345591  0.94186108     0.15600
H84         H  0.75253311  0.94919751  0.94791075     0.15400
C85         C  0.25338596  0.03989713  0.93345752     0.87200
C86         C  0.32053502  0.05561589  0.93356771    -0.53000
C87         C  0.35495460  0.01912969  0.92485189     0.10200
C88         C  0.31811695  0.97182823  0.91615242     0.21100
C89         C  0.23484015  0.04311336  0.91692409    -0.53700
C90         C  0.26950085  0.00809526  0.90766151     0.10300
C91         C  0.25035059  0.97237463  0.93745294    -0.53300
C92         C  0.28309747  0.93583682  0.92816723     0.10800
H93         H  0.33982564  0.09137448  0.94034295     0.15300
H94         H  0.34651632  0.94365347  0.90878198     0.01100
H95         H  0.19763002  0.07056395  0.91301158     0.15600
H96         H  0.22343279  0.95506902  0.94666395     0.15400
O97         O  0.41780720  0.96679736  0.45517813    -0.57100
C98         C  0.25211825  0.01546954  0.44508705     0.75600
O99         O  0.27217642  0.85468498  0.47571680    -0.58200
C100        C  0.44758132  0.96135066  0.46714121     0.75500
C101        C  0.30091051  0.02270003  0.49480539     0.77900
Cd102      Cd  0.31933025  0.95284215  0.46772515     1.37500
O103        O  0.30893570  0.01973489  0.44558360    -0.57100
O104        O  0.29823986  0.04651182  0.48197897    -0.55900
C105        C  0.29809702  0.82346766  0.46576424     0.77900
O106        O  0.30651800  0.96588099  0.49519560    -0.58300
O107        O  0.22764938  0.98058052  0.45460345    -0.56700
O108        O  0.41814836  0.95237802  0.47901063    -0.56700
O109        O  0.32935167  0.85219284  0.45631198    -0.55900
O110        O  0.30681514  0.06521392  0.55622180    -0.57100
C111        C  0.44943300  0.13245083  0.53643712     0.75600
O112        O  0.29552994  0.11636490  0.50816540    -0.58200
C113        C  0.25044500  0.07269370  0.55714154     0.75500
C114        C  0.30132626  0.26140626  0.53744193     0.77900
Cd115      Cd  0.32097685  0.13298009  0.53498531     1.37500
O116        O  0.41816457  0.12200431  0.54799419    -0.57100
O117        O  0.33356540  0.23212187  0.54651851    -0.55900
C118        C  0.30220264  0.05960648  0.50848179     0.77900
O119        O  0.27416640  0.23104179  0.52750734    -0.58300
O120        O  0.42138190  0.14239026  0.52440790    -0.56700
O121        O  0.22715094  0.11082835  0.54832348    -0.56700
O122        O  0.31403145  0.03659118  0.52106615    -0.55900
O123        O  0.41539097  0.61009554  0.45668759    -0.57100
C124        C  0.24530298  0.56550703  0.44563177     0.75600
O125        O  0.29037665  0.61603254  0.49502664    -0.58200
C126        C  0.44497515  0.62795469  0.46792613     0.75500
C127        C  0.29691436  0.75702809  0.46575155     0.77900
Cd128      Cd  0.31572713  0.62810729  0.46807336     1.37500
O129        O  0.30221013  0.56189666  0.44573823    -0.57100
O130        O  0.32664354  0.72751001  0.45617742    -0.55900
C131        C  0.29690891  0.55933760  0.49527097     0.77900
O132        O  0.27041081  0.72655821  0.47580425    -0.58300
O133        O  0.22201684  0.60040628  0.45526484    -0.56700
O134        O  0.41504774  0.64456428  0.47919397    -0.56700
O135        O  0.30753447  0.53414218  0.48289017    -0.55900
O136        O  0.41666546  0.46870891  0.54857905    -0.57100
C137        C  0.24605845  0.52081961  0.55811761     0.75600
O138        O  0.29444951  0.46783892  0.50945652    -0.58200
C139        C  0.44617169  0.46211415  0.53657571     0.75500
C140        C  0.30011320  0.32766585  0.53790193     0.77900
Cd141      Cd  0.31737059  0.45693163  0.53641073     1.37500
O142        O  0.30289091  0.52548834  0.55806660    -0.57100
O143        O  0.33174750  0.35628712  0.54726158    -0.55900
C144        C  0.29722815  0.52489077  0.50929914     0.77900
O145        O  0.27129679  0.35899048  0.52848368    -0.58300
O146        O  0.22349803  0.48313897  0.54904412    -0.56700
O147        O  0.41625138  0.45466468  0.52473327    -0.56700
O148        O  0.30480038  0.55062286  0.52175542    -0.55900
O149        O  0.65557855  0.02625917  0.44743316    -0.57100
C150        C  0.51308804  0.96347914  0.46746359     0.75600
O151        O  0.68588353  0.85915616  0.47740151    -0.58200
C152        C  0.71249662  0.02302629  0.44768189     0.75500
C153        C  0.66014019  0.02610541  0.49606357     0.77900
Cd154      Cd  0.64120408  0.95782791  0.46907055     1.37500
O155        O  0.54451837  0.96886323  0.45573018    -0.57100
O156        O  0.66323753  0.05070832  0.48334023    -0.55900
C157        C  0.65983284  0.82857356  0.46734274     0.77900
O158        O  0.65236564  0.96953049  0.49633769    -0.58300
O159        O  0.54090706  0.95828402  0.47968343    -0.56700
O160        O  0.73522453  0.98674083  0.45709341    -0.56700
O161        O  0.63049040  0.85799145  0.45771157    -0.55900
O162        O  0.65574911  0.06081461  0.55670668    -0.57100
C163        C  0.51506167  0.13298314  0.53676254     0.75600
O164        O  0.68990457  0.22960083  0.52804644    -0.58200
C165        C  0.71197153  0.06830919  0.55801660     0.75500
C166        C  0.66067932  0.06184237  0.50980389     0.77900
Cd167      Cd  0.64353106  0.13281332  0.53627017     1.37500
O168        O  0.54451281  0.12278917  0.54860019    -0.57100
O169        O  0.64483856  0.03873390  0.52210555    -0.55900
C170        C  0.66409580  0.26067760  0.53805254     0.77900
O171        O  0.67297203  0.11769542  0.50982770    -0.58300
O172        O  0.54494418  0.14359644  0.52502176    -0.56700
O173        O  0.73614450  0.10802782  0.54972982    -0.56700
O174        O  0.63411532  0.23210469  0.54780659    -0.55900
O175        O  0.64954152  0.56856564  0.44566677    -0.57100
C176        C  0.51072408  0.62980989  0.46794470     0.75600
O177        O  0.67936650  0.61141289  0.49371165    -0.58200
C178        C  0.70628515  0.57222923  0.44507158     0.75500
C179        C  0.65912844  0.76216124  0.46721127     0.77900
Cd180      Cd  0.63955723  0.63264518  0.46820930     1.37500
O181        O  0.54111401  0.61490566  0.45657445    -0.57100
O182        O  0.63046478  0.73377577  0.45723777    -0.55900
C183        C  0.65999892  0.55763508  0.49404781     0.77900
O184        O  0.68314837  0.73058386  0.47738555    -0.58300
O185        O  0.53976767  0.64674464  0.47934876    -0.56700
O186        O  0.73120612  0.60632532  0.45461627    -0.56700
O187        O  0.63520051  0.53819864  0.48231940    -0.55900
O188        O  0.65052666  0.52620116  0.55576765    -0.57100
C189        C  0.51186336  0.46150948  0.53623891     0.75600
O190        O  0.64236577  0.46686898  0.50759165    -0.58200
C191        C  0.70700886  0.51960665  0.55687471     0.75500
C192        C  0.66343790  0.32681216  0.53771711     0.77900
Cd193      Cd  0.64050707  0.45440927  0.53488354     1.37500
O194        O  0.54332291  0.47067059  0.54778996    -0.57100
O195        O  0.63279924  0.35604094  0.54713417    -0.55900
C196        C  0.66102024  0.52081303  0.50764535     0.77900
O197        O  0.68867627  0.35711792  0.52745146    -0.58300
O198        O  0.53979985  0.45049307  0.52425626    -0.56700
O199        O  0.73140912  0.48179767  0.54812285    -0.56700
O200        O  0.67581343  0.54257027  0.52016136    -0.55900
O201        O  0.31022011  0.22183488  0.70320271    -0.57100
C202        C  0.25069428  0.05688705  0.69533599     0.75600
O203        O  0.41669269  0.07841220  0.72522288    -0.58200
C204        C  0.31266020  0.25341735  0.71494730     0.75500
C205        C  0.24998943  0.11045978  0.74429881     0.77900
Cd206      Cd  0.31828391  0.12533413  0.71691641     1.37500
O207        O  0.24782641  0.11387232  0.69542338    -0.57100
O208        O  0.22596424  0.10256370  0.73165448    -0.55900
C209        C  0.44825620  0.10411672  0.71524545     0.77900
O210        O  0.30621006  0.12025554  0.74439228    -0.58300
O211        O  0.28595444  0.03299496  0.70480662    -0.56700
O212        O  0.31616197  0.22575074  0.72723881    -0.56700
O213        O  0.41954579  0.13384069  0.70554549    -0.55900
O214        O  0.20639472  0.11576757  0.80691493    -0.57100
C215        C  0.14239623  0.26190528  0.78431560     0.75600
O216        O  0.15836577  0.09939914  0.75832388    -0.58200
C217        C  0.20610967  0.05870627  0.80625319     0.75500
C218        C  0.01428230  0.11028769  0.78731411     0.77900
Cd219      Cd  0.14236171  0.13170936  0.78468094     1.37500
O220        O  0.15848712  0.23299647  0.79585120    -0.57100
O221        O  0.04398220  0.13738754  0.79732481    -0.55900
C222        C  0.21396270  0.11264348  0.75807815     0.77900
O223        O  0.04419414  0.08845340  0.77654477    -0.58300
O224        O  0.12652722  0.23098612  0.77314148    -0.56700
O225        O  0.17299532  0.03533890  0.79628656    -0.56700
O226        O  0.23653845  0.13148392  0.77016265    -0.55900
O227        O  0.71153867  0.11650629  0.69580619    -0.57100
C228        C  0.64579022  0.25814405  0.71645721     0.75600
O229        O  0.54567255  0.08069869  0.72575622    -0.58200
C230        C  0.71189317  0.05947872  0.69643609     0.75500
C231        C  0.71278852  0.11442999  0.74525656     0.77900
Cd232      Cd  0.64422044  0.12921124  0.71797290     1.37500
O233        O  0.65961192  0.22713337  0.70510726    -0.57100
O234        O  0.73774669  0.11776355  0.73258567    -0.55900
C235        C  0.51492844  0.10492044  0.71545628     0.77900
O236        O  0.65573095  0.11446435  0.74541601    -0.58300
O237        O  0.63221522  0.22970685  0.72822055    -0.56700
O238        O  0.68022449  0.03569014  0.70671382    -0.56700
O239        O  0.54430680  0.13464470  0.70581479    -0.55900
O240        O  0.80626539  0.23029472  0.79790663    -0.57100
C241        C  0.75604108  0.06071200  0.80738304     0.75600
O242        O  0.80543290  0.11010555  0.75879999    -0.58200
C243        C  0.81884069  0.25993580  0.78620974     0.75500
C244        C  0.94809103  0.10957059  0.78758672     0.77900
Cd245      Cd  0.82004270  0.13099475  0.78569533     1.37500
O246        O  0.75676937  0.11774972  0.80790718    -0.57100
O247        O  0.91918859  0.13567155  0.79789263    -0.55900
C248        C  0.74854706  0.11447485  0.75904881     0.77900
O249        O  0.91726100  0.08755398  0.77701271    -0.58300
O250        O  0.78786044  0.03610804  0.79731061    -0.56700
O251        O  0.83145818  0.23010549  0.77462877    -0.56700
O252        O  0.72436248  0.12239131  0.77169297    -0.55900
O253        O  0.70123874  0.46527293  0.69421590    -0.57100
C254        C  0.64489552  0.32384307  0.71622583     0.75600
O255        O  0.65553265  0.47356967  0.74377859    -0.58200
C256        C  0.70354919  0.52216040  0.69506464     0.75500
C257        C  0.51273288  0.47173896  0.71426544     0.77900
Cd258      Cd  0.64066517  0.45236882  0.71684359     1.37500
O259        O  0.65865913  0.35404503  0.70470226    -0.57100
O260        O  0.54279208  0.44228822  0.70477288    -0.55900
C261        C  0.71243178  0.46917619  0.74341029     0.77900
O262        O  0.54226687  0.49769272  0.72452717    -0.58300
O263        O  0.62977527  0.35302903  0.72773898    -0.56700
O264        O  0.67308930  0.54676179  0.70539612    -0.56700
O265        O  0.73621381  0.46110651  0.73072836    -0.55900
O266        O  0.80643070  0.35727695  0.79714256    -0.57100
C267        C  0.75334253  0.52355610  0.80545343     0.75600
O268        O  0.91562910  0.50144679  0.77471089    -0.58200
C269        C  0.81892921  0.32566243  0.78581417     0.75500
C270        C  0.74886648  0.46932174  0.75708202     0.77900
Cd271      Cd  0.81988122  0.45466723  0.78391710     1.37500
O272        O  0.75688069  0.46673910  0.80643650    -0.57100
O273        O  0.72478190  0.46505474  0.76984609    -0.55900
C274        C  0.94739429  0.48086510  0.78527715     0.77900
O275        O  0.80588481  0.47020111  0.75667836    -0.58300
O276        O  0.78380588  0.54840819  0.79511505    -0.56700
O277        O  0.83159083  0.35351739  0.77390250    -0.56700
O278        O  0.91953582  0.45435913  0.79572701    -0.55900
O279        O  0.25085328  0.45798281  0.69351635    -0.57100
C280        C  0.31295825  0.31896466  0.71461166     0.75600
O281        O  0.41454567  0.49530622  0.72384788    -0.58200
C282        C  0.25600420  0.51483601  0.69325637     0.75500
C283        C  0.24881509  0.47036358  0.74182263     0.77900
Cd284      Cd  0.31888970  0.44719514  0.71519965     1.37500
O285        O  0.30938358  0.34867335  0.70257199    -0.57100
O286        O  0.22499315  0.47228613  0.72900566    -0.55900
C287        C  0.44667956  0.47043189  0.71392375     0.77900
O288        O  0.30520031  0.46216748  0.74227277    -0.58300
O289        O  0.31808576  0.34852874  0.72658008    -0.56700
O290        O  0.29410299  0.53802514  0.70211629    -0.56700
O291        O  0.41927948  0.43976565  0.70416671    -0.55900
O292        O  0.20024843  0.46975058  0.80507087    -0.57100
C293        C  0.14206351  0.32798979  0.78378270     0.75600
O294        O  0.04318656  0.50211037  0.77388696    -0.58200
C295        C  0.20584098  0.52646026  0.80446746     0.75500
C296        C  0.21257089  0.47249802  0.75554022     0.77900
Cd297      Cd  0.14123766  0.45815311  0.78231589     1.37500
O298        O  0.15800396  0.35975304  0.79481382    -0.57100
O299        O  0.23566690  0.45993587  0.76805430    -0.55900
C300        C  0.01354861  0.48147150  0.78487779     0.77900
O301        O  0.15644085  0.48283804  0.75540012    -0.58300
O302        O  0.12578054  0.35605547  0.77217632    -0.56700
O303        O  0.17931605  0.55299934  0.79377604    -0.56700
O304        O  0.04351649  0.45592718  0.79505326    -0.55900
C305        C  0.74390102  0.55795456  0.68494261     0.87200
C306        C  0.74174634  0.62572346  0.68783791    -0.53000
C307        C  0.77905751  0.65860793  0.67891228     0.10200
C308        C  0.81719595  0.61999533  0.66809590     0.21100
C309        C  0.73121014  0.55116857  0.66816975    -0.53700
C310        C  0.76992773  0.58316238  0.65914943     0.10300
C311        C  0.81013191  0.54071607  0.68688713    -0.53300
C312        C  0.84894730  0.57351803  0.67829136     0.10800
H313        H  0.71197155  0.64661643  0.69596881     0.15300
H314        H  0.84898695  0.64648234  0.66107549     0.01100
H315        H  0.69434673  0.52403795  0.66385460     0.15600
H316        H  0.82522626  0.50626297  0.69467118     0.15400
C317        C  0.21451297  0.55376544  0.68422175     0.87200
C318        C  0.21828410  0.54929071  0.66699872    -0.53000
C319        C  0.18082257  0.58868821  0.65932403     0.10200
C320        C  0.14041482  0.62481263  0.67042007     0.21100
C321        C  0.22368090  0.62066683  0.68777071    -0.53700
C322        C  0.18512464  0.65752173  0.68058792     0.10300
C323        C  0.14849480  0.54045683  0.68778680    -0.53300
C324        C  0.10923122  0.57667580  0.68044380     0.10800
H325        H  0.24738720  0.51668194  0.66163102     0.15300
H326        H  0.10931293  0.65838290  0.66581812     0.01100
H327        H  0.25846587  0.63825270  0.69511580     0.15600
H328        H  0.13387452  0.50375056  0.69500859     0.15400
C329        C  0.74593596  0.02153234  0.68522569     0.87200
C330        C  0.81491647  0.03239941  0.68411583    -0.53000
C331        C  0.84463538  0.99724283  0.67360271     0.10200
C332        C  0.79978794  0.95360486  0.66574351     0.21100
C333        C  0.72248116  0.02951602  0.66919800    -0.53700
C334        C  0.75084056  0.99384599  0.65898750     0.10300
C335        C  0.74048945  0.95418868  0.68859897    -0.53300
C336        C  0.76887551  0.91868098  0.67855617     0.10800
H337        H  0.83779277  0.06312094  0.69163305     0.15300
H338        H  0.81717124  0.92443577  0.65690561     0.01100
H339        H  0.68776193  0.06168805  0.66613387     0.15600
H340        H  0.71721597  0.93559028  0.69826243     0.15400
C341        C  0.21460175  0.01903018  0.68454200     0.87200
C342        C  0.22415739  0.95201828  0.68730692    -0.53000
C343        C  0.19334453  0.91615247  0.67788409     0.10200
C344        C  0.15516341  0.95051455  0.66621225     0.21100
C345        C  0.23133544  0.02884875  0.66799763    -0.53700
C346        C  0.19987740  0.99285883  0.65827731     0.10300
C347        C  0.14528606  0.02722416  0.68530153    -0.53300
C348        C  0.11292069  0.99208109  0.67537480     0.10800
H349        H  0.25192845  0.93359027  0.69619785     0.15300
H350        H  0.13217943  0.92175370  0.65805196     0.01100
H351        H  0.26540376  0.06095288  0.66437491     0.15600
H352        H  0.12433539  0.05740449  0.69328569     0.15400
C353        C  0.20698374  0.56186947  0.56740041     0.87200
C354        C  0.21585668  0.55987799  0.58451660    -0.53000
C355        C  0.18048089  0.59999776  0.59254923     0.10200
C356        C  0.13808255  0.63597242  0.58196417     0.21100
C357        C  0.14004841  0.54907136  0.56535354    -0.53700
C358        C  0.10388477  0.58702617  0.57302073     0.10300
C359        C  0.21563962  0.62837577  0.56298778    -0.53300
C360        C  0.17975958  0.66742142  0.57064682     0.10800
H361        H  0.24550393  0.52707818  0.58963961     0.15300
H362        H  0.10881785  0.67004108  0.58702509     0.01100
H363        H  0.12216656  0.51191454  0.55879360     0.15600
H364        H  0.24770652  0.64327264  0.55455736     0.15400
C365        C  0.21307576  0.03438124  0.56737998     0.87200
C366        C  0.14559135  0.04944755  0.56746758    -0.53000
C367        C  0.11139399  0.01169853  0.57612796     0.10200
C368        C  0.14902353  0.96316469  0.58421316     0.21100
C369        C  0.23156991  0.03621878  0.58386253    -0.53700
C370        C  0.19737242  0.99961041  0.59286906     0.10300
C371        C  0.21704287  0.96786980  0.56291828    -0.53300
C372        C  0.18428577  0.93019370  0.57174815     0.10800
H373        H  0.12650812  0.08687908  0.56124899     0.15300
H374        H  0.12140392  0.93230773  0.59121115     0.01100
H375        H  0.26765986  0.06468041  0.58805995     0.15600
H376        H  0.24426631  0.95171719  0.55364549     0.15400
C377        C  0.74375616  0.55628873  0.56764963     0.87200
C378        C  0.81058634  0.54055665  0.56705997    -0.53000
C379        C  0.84530180  0.57475079  0.57615627     0.10200
C380        C  0.80970483  0.62063462  0.58559343     0.21100
C381        C  0.72590267  0.54955732  0.58419240    -0.53700
C382        C  0.76103905  0.58281650  0.59371195     0.10300
C383        C  0.74156654  0.62442770  0.56441882    -0.53300
C384        C  0.77515123  0.65933679  0.57396977     0.10800
H385        H  0.82989040  0.50731431  0.55954095     0.15300
H386        H  0.83825638  0.64636730  0.59348616     0.01100
H387        H  0.68932494  0.52072079  0.58799353     0.15600
H388        H  0.71629529  0.64296664  0.55511393     0.15400
C389        C  0.74784393  0.03035014  0.56860519     0.87200
C390        C  0.74653115  0.96289729  0.56454964    -0.53000
C391        C  0.77734017  0.92620479  0.57422457     0.10200
C392        C  0.80915177  0.96241487  0.58673368     0.21100
C393        C  0.72610521  0.03406033  0.58477392    -0.53700
C394        C  0.75859396  0.99926013  0.59435326     0.10300
C395        C  0.81459189  0.04674783  0.56930103    -0.53300
C396        C  0.84788943  0.01004286  0.57831044     0.10800
H397        H  0.72336684  0.94611490  0.55471876     0.15300
H398        H  0.83430378  0.93387555  0.59474209     0.01100
H399        H  0.68945428  0.06295243  0.58842901     0.15600
H400        H  0.83452153  0.08302400  0.56276835     0.15400
O401        O  0.92191963  0.12407265  0.95491080    -0.57100
C402        C  0.75576400  0.07321232  0.94539109     0.75600
O403        O  0.79773693  0.12613944  0.99452774    -0.58200
C404        C  0.95300532  0.13969860  0.96609600     0.75500
C405        C  0.80158501  0.26810604  0.96518180     0.77900
Cd406      Cd  0.82405576  0.13929090  0.96750878     1.37500
O407        O  0.81253476  0.06955904  0.94606029    -0.57100
O408        O  0.83613848  0.24012389  0.95635175    -0.55900
C409        C  0.80605446  0.06965106  0.99466909     0.77900
O410        O  0.77309576  0.23625890  0.97462005    -0.58300
O411        O  0.73106209  0.10986537  0.95437358    -0.56700
O412        O  0.92465819  0.15466551  0.97777288    -0.56700
O413        O  0.81986694  0.04565022  0.98234929    -0.55900
O414        O  0.80702910  0.03182955  0.05699084    -0.57100
C415        C  0.94917557  0.97052000  0.03614620     0.75600
O416        O  0.77160061  0.86732658  0.02732077    -0.58200
C417        C  0.75027050  0.02678445  0.05778195     0.75500
C418        C  0.80389821  0.03380660  0.00848992     0.77900
Cd419      Cd  0.81997146  0.96410816  0.03553204     1.37500
O420        O  0.91937850  0.97409359  0.04819263    -0.57100
O421        O  0.80039280  0.05820672  0.02122510    -0.55900
C422        C  0.79891634  0.83520729  0.03685998     0.77900
O423        O  0.80928207  0.97698528  0.00826511    -0.58300
O424        O  0.91945030  0.96469643  0.02423655    -0.56700
O425        O  0.72574038  0.99018326  0.04874752    -0.56700
O426        O  0.83115780  0.86295458  0.04624803    -0.55900
O427        O  0.80492376  0.57101123  0.05581113    -0.57100
C428        C  0.94511473  0.63437695  0.03519016     0.75600
O429        O  0.79637429  0.62851302  0.00699946    -0.58200
C430        C  0.74831588  0.57626619  0.05680765     0.75500
C431        C  0.79799848  0.76886672  0.03654432     0.77900
Cd432      Cd  0.81587663  0.63961160  0.03428553     1.37500
O433        O  0.91460687  0.63375402  0.04713492    -0.57100
O434        O  0.82868093  0.73895114  0.04580797    -0.55900
C435        C  0.79311527  0.57142806  0.00714564     0.77900
O436        O  0.77070523  0.73886215  0.02658092    -0.58300
O437        O  0.91604569  0.63540970  0.02307529    -0.56700
O438        O  0.72354310  0.61293019  0.04783219    -0.56700
O439        O  0.79566398  0.54633028  0.01982720    -0.55900
O440        O  0.79724029  0.53227001  0.94490401    -0.57100
C441        C  0.94058537  0.47069938  0.96533833     0.75600
O442        O  0.78691219  0.47878501  0.99338271    -0.58200
C443        C  0.74099543  0.52436660  0.94373399     0.75500
C444        C  0.79883725  0.33452469  0.96497483     0.77900
Cd445      Cd  0.81149487  0.46479568  0.96638946     1.37500
O446        O  0.90988121  0.47567917  0.95349708    -0.57100
O447        O  0.83097682  0.36444666  0.95594267    -0.55900
C448        C  0.79199940  0.53573717  0.99326874     0.77900
O449        O  0.76788290  0.36476102  0.97422869    -0.58300
O450        O  0.91173180  0.46472474  0.97743248    -0.56700
O451        O  0.71739656  0.48604909  0.95252610    -0.56700
O452        O  0.80088225  0.56005780  0.98067006    -0.55900
O453        O  0.15610009  0.03868658  0.05452692    -0.57100
C454        C  0.01495509  0.97177589  0.03571591     0.75600
O455        O  0.15906043  0.97968756  0.00648783    -0.58200
C456        C  0.21207476  0.03060559  0.05623014     0.75500
C457        C  0.16196469  0.83809735  0.03549649     0.77900
Cd458      Cd  0.14399820  0.96764551  0.03380374     1.37500
O459        O  0.04669914  0.97562334  0.04739700    -0.57100
O460        O  0.13046969  0.86719583  0.04477182    -0.55900
C461        C  0.16425549  0.03657056  0.00665567     0.77900
O462        O  0.19032705  0.86908235  0.02584784    -0.58300
O463        O  0.04272529  0.96791055  0.02342592    -0.56700
O464        O  0.23663031  0.99151624  0.04786546    -0.56700
O465        O  0.16451624  0.06138019  0.01936028    -0.55900
O466        O  0.04827478  0.12706757  0.95408505    -0.57100
C467        C  0.21660765  0.07847353  0.94387647     0.75600
O468        O  0.18985613  0.24288166  0.97381306    -0.58200
C469        C  0.01871202  0.14057232  0.96571604     0.75500
C470        C  0.16492574  0.07221578  0.99279153     0.77900
Cd471      Cd  0.14737177  0.14300964  0.96592604     1.37500
O472        O  0.16000041  0.07291116  0.94472051    -0.57100
O473        O  0.14990418  0.04880852  0.98049247    -0.55900
C474        C  0.16291940  0.27282117  0.96376962     0.77900
O475        O  0.17641036  0.12824105  0.99262774    -0.58300
O476        O  0.24067823  0.11641433  0.95265627    -0.56700
O477        O  0.04855499  0.15502942  0.97717131    -0.56700
O478        O  0.13461230  0.24258622  0.95406167    -0.55900
O479        O  0.04160930  0.63541038  0.04707484    -0.57100
C480        C  0.20970115  0.57734295  0.05603720     0.75600
O481        O  0.15504875  0.63085192  0.00657311    -0.58200
C482        C  0.01094090  0.63542097  0.03516550     0.75500
C483        C  0.16096045  0.77160683  0.03549427     0.77900
Cd484      Cd  0.14025659  0.64200502  0.03393023     1.37500
O485        O  0.15297278  0.57256378  0.05526470    -0.57100
O486        O  0.12929634  0.74304248  0.04489589    -0.55900
C487        C  0.15718606  0.57375032  0.00673034     0.77900
O488        O  0.18765747  0.74014954  0.02571064    -0.58300
O489        O  0.23434731  0.61365532  0.04690265    -0.56700
O490        O  0.03982759  0.63769389  0.02302005    -0.56700
O491        O  0.15638444  0.54867714  0.01942509    -0.55900
O492        O  0.03683941  0.47624842  0.95334872    -0.57100
C493        C  0.20435401  0.53219015  0.94371689     0.75600
O494        O  0.15850841  0.48103274  0.99304152    -0.58200
C495        C  0.00643955  0.47070397  0.96524739     0.75500
C496        C  0.15974266  0.33927328  0.96393934     0.77900
Cd497      Cd  0.13594221  0.46815160  0.96604951     1.37500
O498        O  0.14802515  0.53892673  0.94504890    -0.57100
O499        O  0.12886034  0.36750006  0.95436087    -0.55900
C500        C  0.15595397  0.53811220  0.99289812     0.77900
O501        O  0.18358361  0.37082605  0.97414740    -0.58300
O502        O  0.22891509  0.49461538  0.95248434    -0.56700
O503        O  0.03564369  0.46423398  0.97723583    -0.56700
O504        O  0.14829227  0.56281468  0.98031053    -0.55900
C505        C  0.75139874  0.06287111  0.43797132     0.87200
C506        C  0.74142083  0.13058665  0.44092693    -0.53000
C507        C  0.77734837  0.16780785  0.43255752     0.10200
C508        C  0.82032236  0.13307569  0.42212576     0.21100
C509        C  0.74363929  0.05508941  0.42092204    -0.53700
C510        C  0.77884000  0.09310127  0.41224851     0.10300
C511        C  0.81832362  0.05237691  0.44064242    -0.53300
C512        C  0.85450664  0.08827981  0.43236772     0.10800
H513        H  0.70871914  0.14740169  0.44893756     0.15300
H514        H  0.84969505  0.16481643  0.41608161     0.01100
H515        H  0.71393180  0.02101209  0.41630211     0.15600
H516        H  0.83628608  0.01773653  0.44798631     0.15400
C517        C  0.74254603  0.53547225  0.43417539     0.87200
C518        C  0.81003460  0.54880881  0.43524809    -0.53000
C519        C  0.84450104  0.51460549  0.42610371     0.10200
C520        C  0.80825324  0.47033187  0.41637353     0.21100
C521        C  0.72682678  0.54384601  0.41753543    -0.53700
C522        C  0.76185735  0.50990954  0.40808347     0.10300
C523        C  0.73689295  0.46720748  0.43697927    -0.53300
C524        C  0.77068765  0.43219825  0.42757257     0.10800
H525        H  0.82973887  0.58101962  0.44298124     0.15300
H526        H  0.83702410  0.44408610  0.40865384     0.01100
H527        H  0.69144304  0.57374253  0.41367499     0.15600
H528        H  0.70913852  0.44833668  0.44584912     0.15400
C529        C  0.21500527  0.05273513  0.43443591     0.87200
C530        C  0.14761206  0.04002831  0.43612303    -0.53000
C531        C  0.11235663  0.07492104  0.42736424     0.10200
C532        C  0.14751424  0.11914237  0.41736866     0.21100
C533        C  0.22827471  0.04484788  0.41757980    -0.53700
C534        C  0.19251767  0.08001255  0.40856711     0.10300
C535        C  0.22141140  0.12090829  0.43732334    -0.53300
C536        C  0.18653802  0.15653332  0.42829870     0.10800
H537        H  0.12855260  0.00791585  0.44402059     0.15300
H538        H  0.11809387  0.14569633  0.40987751     0.01100
H539        H  0.26283691  0.01495773  0.41326883     0.15600
H540        H  0.25016798  0.13912421  0.44603575     0.15400
C541        C  0.20694223  0.52663930  0.43549518     0.87200
C542        C  0.21561396  0.45917399  0.43874676    -0.53000
C543        C  0.18071075  0.42185615  0.43027751     0.10200
C544        C  0.13898298  0.45642641  0.41943963     0.21100
C545        C  0.21676173  0.53347946  0.41843832    -0.53700
C546        C  0.18127144  0.49601203  0.40966753     0.10300
C547        C  0.13969868  0.53816422  0.43759277    -0.53300
C548        C  0.10396076  0.50239347  0.42915264     0.10800
H549        H  0.24668439  0.44250755  0.44715190     0.15300
H550        H  0.11029818  0.42433376  0.41340287     0.01100
H551        H  0.24693955  0.56740110  0.41388211     0.15600
H552        H  0.12131131  0.57302124  0.44479477     0.15400
C553        C  0.20973412  0.07758766  0.31738222     0.87200
C554        C  0.22678826  0.14403234  0.31673929    -0.53000
C555        C  0.19197829  0.17960971  0.32539816     0.10200
C556        C  0.14236399  0.14541195  0.33413819     0.21100
C557        C  0.21251379  0.06151656  0.33413800    -0.53700
C558        C  0.17662588  0.09688910  0.34317876     0.10300
C559        C  0.14219435  0.07552857  0.31335317    -0.53300
C560        C  0.10627351  0.11054848  0.32230206     0.10800
H561        H  0.26281647  0.16235347  0.30983521     0.15300
H562        H  0.11213444  0.17399732  0.34071391     0.01100
H563        H  0.24238836  0.02690263  0.33842085     0.15600
H564        H  0.12447080  0.04804655  0.30432863     0.15400
C565        C  0.73817176  0.07253072  0.32012424     0.87200
C566        C  0.73646202  0.05557129  0.33687591    -0.53000
C567        C  0.77048270  0.09304680  0.34584025     0.10200
C568        C  0.80420692  0.14250511  0.33682310     0.21100
C569        C  0.71958503  0.13862380  0.31963536    -0.53700
C570        C  0.75459284  0.17532444  0.32801851     0.10300
C571        C  0.80526844  0.07269531  0.31592394    -0.53300
C572        C  0.84087298  0.10814975  0.32478961     0.10800
H573        H  0.71022565  0.01799449  0.34119235     0.15300
H574        H  0.83119659  0.17359052  0.34384467     0.01100
H575        H  0.68381044  0.15618175  0.31259236     0.15600
H576        H  0.82303286  0.04662244  0.30664515     0.15400
C577        C  0.74273506  0.53651519  0.31702353     0.87200
C578        C  0.72772046  0.46980766  0.31529905    -0.53000
C579        C  0.76359963  0.43293424  0.32331927     0.10200
C580        C  0.81294700  0.46626152  0.33236926     0.21100
C581        C  0.73968345  0.54735709  0.33402281    -0.53700
C582        C  0.77738175  0.51102907  0.34242143     0.10300
C583        C  0.80980163  0.54270053  0.31293512    -0.53300
C584        C  0.84681673  0.50612912  0.32099573     0.10800
H585        H  0.69039704  0.45262229  0.30869459     0.15300
H586        H  0.84505997  0.43616830  0.33799169     0.01100
H587        H  0.70791403  0.57891953  0.33885736     0.15600
H588        H  0.82666927  0.57406237  0.30456519     0.15400
C589        C  0.21326570  0.54150431  0.31821633     0.87200
C590        C  0.21289353  0.55716138  0.33499319    -0.53000
C591        C  0.17869364  0.51845864  0.34362411     0.10200
C592        C  0.14576792  0.46975203  0.33417785     0.21100
C593        C  0.23233389  0.47531648  0.31757990    -0.53700
C594        C  0.19710565  0.43785479  0.32576017     0.10300
C595        C  0.14660353  0.54199110  0.31364881    -0.53300
C596        C  0.11057682  0.50511284  0.32202579     0.10800
H597        H  0.23871025  0.59439198  0.33958012     0.15300
H598        H  0.11747040  0.43778135  0.34069221     0.01100
H599        H  0.26980745  0.45860736  0.31095052     0.15600
H600        H  0.12894058  0.57080766  0.30486149     0.15400
O601        O  0.20381314  0.98610412  0.19524442    -0.57100
C602        C  0.14912348  0.84085338  0.21665229     0.75600
O603        O  0.15229812  0.99043684  0.24459531    -0.58200
C604        C  0.20491826  0.04318349  0.19521331     0.75500
C605        C  0.01079688  0.98892382  0.21613514     0.77900
Cd606      Cd  0.14086074  0.97191382  0.21745577     1.37500
O607        O  0.14940124  0.87157669  0.20472661    -0.57100
O608        O  0.04017743  0.96179153  0.20609427    -0.55900
C609        C  0.20937498  0.99216614  0.24441288     0.77900
O610        O  0.04157187  0.01348713  0.22637163    -0.58300
O611        O  0.14683956  0.87026476  0.22871014    -0.56700
O612        O  0.17367720  0.06902363  0.20520196    -0.56700
O613        O  0.23449188  0.98933994  0.23174142    -0.55900
O614        O  0.24203435  0.98343384  0.30621327    -0.57100
C615        C  0.31098197  0.84344496  0.28589927     0.75600
O616        O  0.30160192  0.99780460  0.25824187    -0.58200
C617        C  0.24857254  0.03993624  0.30718791     0.75500
C618        C  0.44404576  0.98887368  0.28761779     0.77900
Cd619      Cd  0.31420010  0.97196405  0.28516331     1.37500
O620        O  0.29802347  0.87392738  0.29740009    -0.57100
O621        O  0.41384414  0.95643177  0.29654288    -0.55900
C622        C  0.24479898  0.99198349  0.25825338     0.77900
O623        O  0.41409062  0.01884021  0.27811593    -0.58300
O624        O  0.32435272  0.87234011  0.27416762    -0.56700
O625        O  0.28793538  0.06358657  0.29867538    -0.56700
O626        O  0.22023263  0.98139341  0.27071922    -0.55900
O627        O  0.64977067  0.86870438  0.29883944    -0.57100
C628        C  0.70140939  0.03451125  0.30951143     0.75600
O629        O  0.65309062  0.98709512  0.25915682    -0.58200
C630        C  0.64632237  0.83899556  0.28680851     0.75500
C631        C  0.51057522  0.98728015  0.28777550     0.77900
Cd632      Cd  0.64033683  0.96747680  0.28638513     1.37500
O633        O  0.70984903  0.97841527  0.30812149    -0.57100
O634        O  0.53817811  0.95181389  0.29644800    -0.55900
C635        C  0.71014998  0.98630423  0.25930874     0.77900
O636        O  0.54300069  0.01758393  0.27880532    -0.58300
O637        O  0.66323512  0.05798027  0.30072028    -0.56700
O638        O  0.64080145  0.86860608  0.27483798    -0.56700
O639        O  0.73481048  0.98284398  0.27200286    -0.55900
O640        O  0.75064793  0.97429170  0.19602736    -0.57100
C641        C  0.81287261  0.83316435  0.21778586     0.75600
O642        O  0.91323354  0.01013242  0.22672811    -0.58200
C643        C  0.74935261  0.03135085  0.19627089     0.75500
C644        C  0.74589158  0.98429993  0.24544708     0.77900
Cd645      Cd  0.81532347  0.96327411  0.21845301     1.37500
O646        O  0.80737563  0.86361213  0.20590920    -0.57100
O647        O  0.72106034  0.97922010  0.23280052    -0.55900
C648        C  0.94435464  0.98703304  0.21634356     0.77900
O649        O  0.80296270  0.98320211  0.24561376    -0.58300
O650        O  0.81793018  0.86249633  0.22980262    -0.56700
O651        O  0.78049023  0.05671525  0.20635236    -0.56700
O652        O  0.91556373  0.95796960  0.20653646    -0.55900
O653        O  0.29728011  0.74777295  0.29760183    -0.57100
C654        C  0.25174272  0.58062231  0.30822150     0.75600
O655        O  0.30547323  0.62290217  0.25888012    -0.58200
C656        C  0.31144642  0.77776014  0.28606823     0.75500
C657        C  0.44433301  0.63025530  0.28802765     0.77900
Cd658      Cd  0.31545358  0.64918854  0.28583148     1.37500
O659        O  0.24330035  0.63679134  0.30701662    -0.57100
O660        O  0.41617467  0.66694748  0.29628095    -0.55900
C661        C  0.24862795  0.62734177  0.25863501     0.77900
O662        O  0.41263753  0.59793000  0.27939906    -0.58300
O663        O  0.29201247  0.55814779  0.29985216    -0.56700
O664        O  0.32684580  0.74837211  0.27460274    -0.56700
O665        O  0.22296639  0.63755896  0.27097444    -0.55900
O666        O  0.20812388  0.63124095  0.19524802    -0.57100
C667        C  0.14971236  0.77447219  0.21669328     0.75600
O668        O  0.04807947  0.59666734  0.22686190    -0.58200
C669        C  0.20970914  0.57418986  0.19516920     0.75500
C670        C  0.21410728  0.62575144  0.24466990     0.77900
Cd671      Cd  0.14529541  0.64314330  0.21765125     1.37500
O672        O  0.15240661  0.74364883  0.20482532    -0.57100
O673        O  0.23964159  0.62916840  0.23204591    -0.55900
C674        C  0.01618734  0.61932711  0.21657753     0.77900
O675        O  0.15705870  0.62544924  0.24471564    -0.58300
O676        O  0.14613367  0.74511739  0.22876103    -0.56700
O677        O  0.17933880  0.54768528  0.20525826    -0.56700
O678        O  0.04423404  0.64778485  0.20648265    -0.55900
O679        O  0.65076305  0.74246437  0.29843559    -0.57100
C680        C  0.70326639  0.57555054  0.30740942     0.75600
O681        O  0.54096712  0.59774605  0.27875712    -0.58200
C682        C  0.64692338  0.77337954  0.28658370     0.75500
C683        C  0.71030549  0.62333054  0.25868657     0.77900
Cd684      Cd  0.64031485  0.64529081  0.28553601     1.37500
O685        O  0.70938728  0.63224596  0.30700209    -0.57100
O686        O  0.73446846  0.62901462  0.27138043    -0.55900
C687        C  0.51068423  0.62936755  0.28785600     0.77900
O688        O  0.65319192  0.62386201  0.25834929    -0.58300
O689        O  0.66493627  0.55282993  0.29853441    -0.56700
O690        O  0.64209943  0.74500676  0.27440472    -0.56700
O691        O  0.54037002  0.66395740  0.29630258    -0.55900
O692        O  0.76144442  0.62517212  0.19524064    -0.57100
C693        C  0.81432007  0.76718256  0.21776868     0.75600
O694        O  0.80404371  0.61735173  0.24545928    -0.58200
C695        C  0.75675970  0.56840703  0.19611031     0.75500
C696        C  0.94975053  0.61801181  0.21674814     0.77900
Cd697      Cd  0.82014897  0.63749489  0.21844029     1.37500
O698        O  0.80923583  0.73669914  0.20589886    -0.57100
O699        O  0.92023734  0.64606947  0.20690948    -0.55900
C700        C  0.74708283  0.62122450  0.24500255     0.77900
O701        O  0.91919837  0.59338393  0.22707615    -0.58300
O702        O  0.82156860  0.73796732  0.22974880    -0.56700
O703        O  0.78429605  0.54321618  0.20684968    -0.53500
O704        O  0.72373277  0.62759685  0.23222068    -0.55900
C705        C  0.24824528  0.54114922  0.18392396     0.87200
C706        C  0.31509876  0.55790111  0.18561093    -0.53000
C707        C  0.35226148  0.53026560  0.17562170     0.10200
C708        C  0.31873272  0.48861296  0.16470389     0.21100
C709        C  0.23226675  0.55570740  0.16771844    -0.53700
C710        C  0.26841239  0.52784310  0.15756818     0.10300
C711        C  0.24645317  0.47156869  0.18463565    -0.53300
C712        C  0.28510136  0.44259747  0.17488300     0.10800
H713        H  0.33182734  0.58783581  0.19427797     0.15300
H714        H  0.35085647  0.46990618  0.15658472     0.01100
H715        H  0.19418626  0.58357716  0.16451683     0.15600
H716        H  0.21599063  0.44778789  0.19208698     0.15400
C717        C  0.24357418  0.07667995  0.18400870     0.87200
C718        C  0.24397978  0.14631395  0.18487358    -0.53000
C719        C  0.28254852  0.17471412  0.17490191     0.10200
C720        C  0.31405278  0.12826266  0.16451306     0.21100
C721        C  0.22589884  0.06324544  0.16788817    -0.53700
C722        C  0.26196646  0.09052163  0.15760522     0.10300
C723        C  0.31004732  0.05823718  0.18532648    -0.53300
C724        C  0.34729747  0.08537394  0.17522593     0.10800
H725        H  0.21526747  0.17055976  0.19261387     0.15300
H726        H  0.34594452  0.14656547  0.15623832     0.01100
H727        H  0.18701879  0.03605275  0.16483661     0.15600
H728        H  0.32647702  0.02725444  0.19380451     0.15400
C729        C  0.71209960  0.06689997  0.18524970     0.87200
C730        C  0.73293875  0.06017364  0.16896090    -0.53000
C731        C  0.69918834  0.09229951  0.15899638     0.10200
C732        C  0.64787383  0.12890471  0.16631432     0.21100
C733        C  0.71177973  0.13501945  0.18827800    -0.53700
C734        C  0.67948368  0.16837679  0.17824180     0.10300
C735        C  0.64519814  0.04935664  0.18518205    -0.53300
C736        C  0.61094751  0.08211039  0.17541645     0.10800
H737        H  0.77058663  0.03204416  0.16558713     0.15300
H738        H  0.62085994  0.15469534  0.15807317     0.01100
H739        H  0.73498996  0.15526339  0.19769580     0.15600
H740        H  0.62599723  0.01594787  0.19271633     0.15400
C741        C  0.71780983  0.53351362  0.18535332     0.87200
C742        C  0.71578210  0.46561593  0.18851165    -0.53000
C743        C  0.68054762  0.43330027  0.17890924     0.10200
C744        C  0.64799652  0.47351000  0.16727891     0.21100
C745        C  0.73605634  0.53919518  0.16877923    -0.53700
C746        C  0.69910784  0.50832824  0.15915660     0.10300
C747        C  0.65179234  0.55325229  0.18598726    -0.53300
C748        C  0.61479163  0.52157643  0.17671300     0.10800
H749        H  0.74077167  0.44451300  0.19753038     0.15300
H750        H  0.61796551  0.44842600  0.15955228     0.01100
H751        H  0.77456357  0.56551870  0.16503225     0.15600
H752        H  0.63526999  0.58795884  0.19350595     0.15400
C753        C  0.71422720  0.06559631  0.06829220     0.87200
C754        C  0.73232347  0.06041303  0.08474443    -0.53000
C755        C  0.70012793  0.09714377  0.09405823     0.10200
C756        C  0.65333026  0.13698900  0.08576316     0.21100
C757        C  0.64608783  0.05330576  0.06829720    -0.53700
C758        C  0.61298666  0.09136498  0.07714427     0.10300
C759        C  0.72099661  0.13268370  0.06439398    -0.53300
C760        C  0.68978185  0.17038874  0.07354476     0.10800
H761        H  0.76638323  0.02922852  0.08874974     0.15300
H762        H  0.62853695  0.16865168  0.09310284     0.01100
H763        H  0.62585228  0.01706666  0.06187419     0.15600
H764        H  0.74830568  0.14902103  0.05513462     0.15400
C765        C  0.71222201  0.53783276  0.06743472     0.87200
C766        C  0.64428245  0.54966798  0.06672487    -0.53000
C767        C  0.61038522  0.51279324  0.07559218     0.10200
C768        C  0.64882089  0.46805689  0.08482769     0.21100
C769        C  0.72830992  0.54437655  0.08405437    -0.53700
C770        C  0.69468869  0.50839508  0.09342284     0.10300
C771        C  0.71969014  0.47046976  0.06406545    -0.53300
C772        C  0.68715818  0.43349285  0.07318890     0.10800
H773        H  0.62446648  0.58470995  0.05982696     0.15300
H774        H  0.62126578  0.43776941  0.09197523     0.01100
H775        H  0.76334788  0.57464703  0.08800363     0.15600
H776        H  0.74855479  0.45337635  0.05521467     0.15400
C777        C  0.24718469  0.06765549  0.06728727     0.87200
C778        C  0.31442854  0.05260382  0.06813705    -0.53000
C779        C  0.34693241  0.08894714  0.07751213     0.10200
C780        C  0.30657405  0.13480552  0.08602266     0.21100
C781        C  0.22478959  0.06182663  0.08340904    -0.53700
C782        C  0.25633908  0.09634303  0.09331841     0.10300
C783        C  0.24468599  0.13543730  0.06369574    -0.53300
C784        C  0.27455526  0.17129409  0.07367331     0.10800
H785        H  0.33498383  0.01707641  0.06154036     0.15300
H786        H  0.33036796  0.16385678  0.09415915     0.01100
H787        H  0.18866077  0.03155028  0.08678755     0.15600
H788        H  0.22080044  0.15336106  0.05408727     0.15400
C789        C  0.24549446  0.54041922  0.06704475     0.87200
C790        C  0.22636495  0.54945637  0.08333616    -0.53000
C791        C  0.25851120  0.51558686  0.09323523     0.10200
C792        C  0.30630532  0.47485492  0.08585544     0.21100
C793        C  0.31326284  0.55369373  0.06696123    -0.53700
C794        C  0.34610434  0.51840002  0.07646622     0.10300
C795        C  0.24062025  0.47206518  0.06422473    -0.53300
C796        C  0.27180327  0.43695954  0.07418790     0.10800
H797        H  0.19189821  0.58124958  0.08680379     0.15300
H798        H  0.33076283  0.44705232  0.09412828     0.01100
H799        H  0.33384284  0.58741268  0.05975353     0.15600
H800        H  0.21539100  0.45341755  0.05492165     0.15400
C801        C  0.27255018  0.36872953  0.07364923    -0.04600
C802        C  0.21848945  0.33534870  0.07153596    -0.01700
C803        C  0.21919830  0.27140838  0.07120776     0.03300
C804        C  0.27392731  0.23927605  0.07303783    -0.04600
C805        C  0.32766475  0.27254443  0.07505048    -0.01700
C806        C  0.32701761  0.33622206  0.07551012     0.03300
C807        C  0.16092805  0.36617779  0.07071128     0.37900
C808        C  0.38511293  0.24225061  0.07656654     0.37900
C809        C  0.38386692  0.36664763  0.07809305     0.36300
C810        C  0.16248346  0.23896337  0.06995292     0.36300
N811        N  0.43090457  0.38661274  0.08064868    -0.38500
N812        N  0.11722485  0.21317909  0.06898239    -0.38500
N813        N  0.43241485  0.22148565  0.07810760    -0.37900
N814        N  0.11484825  0.39043640  0.07010463    -0.37900
C815        C  0.41390751  0.51871143  0.07632337    -0.04600
C816        C  0.44721984  0.51820580  0.08978310    -0.01700
C817        C  0.51085120  0.51679777  0.08952287     0.03300
C818        C  0.54267083  0.51574830  0.07582856    -0.04600
C819        C  0.50941160  0.51651806  0.06228970    -0.01700
C820        C  0.44575106  0.51657343  0.06254529     0.03300
C821        C  0.41681156  0.51588543  0.10410015     0.37900
C822        C  0.54012993  0.51278854  0.04794682     0.37900
C823        C  0.41343577  0.50967256  0.04852709     0.36300
C824        C  0.54288459  0.51688411  0.10359260     0.36300
N825        N  0.38775682  0.50421177  0.03735576    -0.38500
N826        N  0.56645100  0.51600373  0.11509574    -0.38500
N827        N  0.56419204  0.50954600  0.03648430    -0.37900
N828        N  0.39426125  0.51156970  0.11571144    -0.37900
C829        C  0.54464555  0.08974373  0.07747910    -0.04600
C830        C  0.51145834  0.08445303  0.06395285    -0.01700
C831        C  0.44776821  0.08567157  0.06403744     0.03300
C832        C  0.41510376  0.08809492  0.07769127    -0.04600
C833        C  0.44799884  0.09332501  0.09117546    -0.01700
C834        C  0.51193565  0.09532767  0.09105141     0.03300
C835        C  0.54223641  0.08316696  0.04958966     0.37900
C836        C  0.41648138  0.09951966  0.10527743     0.37900
C837        C  0.54317124  0.10461927  0.10505858     0.36300
C838        C  0.41638453  0.08975170  0.04981461     0.36300
N839        N  0.56668601  0.11416028  0.11634135    -0.38500
N840        N  0.39145363  0.09307517  0.03848844    -0.38500
N841        N  0.39191186  0.10659087  0.11654785    -0.37900
N842        N  0.56626837  0.08225658  0.03809638    -0.37900
C843        C  0.68963650  0.36608721  0.07193142    -0.04600
C844        C  0.63699495  0.33299092  0.06868430    -0.01700
C845        C  0.63769353  0.26938825  0.06872036     0.03300
C846        C  0.69117106  0.23766289  0.07182446    -0.04600
C847        C  0.74561769  0.27057209  0.07327391    -0.01700
C848        C  0.74463940  0.33447507  0.07378202     0.03300
C849        C  0.58241541  0.36359362  0.06423782     0.37900
C850        C  0.80257083  0.23884521  0.07450677     0.37900
C851        C  0.79958913  0.36727720  0.07717692     0.36300
C852        C  0.58419033  0.23732458  0.06404125     0.36300
N853        N  0.84338891  0.39327583  0.08002406    -0.38500
N854        N  0.54058751  0.21490085  0.05969503    -0.38500
N855        N  0.84789598  0.21341326  0.07553321    -0.37900
N856        N  0.53771779  0.38472327  0.06023292    -0.37900
C857        C  0.70584608  0.50927859  0.14234759    -0.04600
C858        C  0.70639151  0.45475774  0.13421959    -0.01700
C859        C  0.70394416  0.45460556  0.11844299     0.03300
C860        C  0.70134853  0.50918018  0.11026870    -0.04600
C861        C  0.70298132  0.56430284  0.11838768    -0.01700
C862        C  0.70702442  0.56426457  0.13424349     0.03300
C863        C  0.71145934  0.39756194  0.14188091     0.37900
C864        C  0.69484771  0.62129629  0.11066207     0.37900
C865        C  0.70885406  0.62126256  0.14220539     0.36300
C866        C  0.70267987  0.39696942  0.11089092     0.36300
N867        N  0.71012842  0.66666552  0.14857655    -0.38500
N868        N  0.69999682  0.34955280  0.10558810    -0.38500
N869        N  0.68781334  0.66689754  0.10459537    -0.37900
N870        N  0.71569840  0.35014277  0.14712496    -0.37900
C871        C  0.70899250  0.09046419  0.14246590    -0.04600
C872        C  0.69740808  0.03733658  0.13427472    -0.01700
C873        C  0.69373791  0.03951121  0.11849033     0.03300
C874        C  0.70625781  0.09393125  0.11071989    -0.04600
C875        C  0.72598799  0.14446067  0.11894318    -0.01700
C876        C  0.72688872  0.14283254  0.13470908     0.03300
C877        C  0.68860914  0.98060226  0.14210056     0.37900
C878        C  0.74968841  0.19709142  0.11140439     0.37900
C879        C  0.75224497  0.19324554  0.14280167     0.36300
C880        C  0.67450453  0.98634642  0.11034790     0.36300
N881        N  0.77513241  0.23369679  0.14863667    -0.38500
N882        N  0.65897266  0.94397822  0.10384930    -0.38500
N883        N  0.77095203  0.24000219  0.10627271    -0.37900
N884        N  0.68166805  0.93549326  0.14841342    -0.37900
C885        C  0.67923179  0.36544665  0.17917491    -0.04600
C886        C  0.73394842  0.33263276  0.18008686    -0.01700
C887        C  0.73358311  0.26900385  0.18042434     0.03300
C888        C  0.67885765  0.23637231  0.17863958    -0.04600
C889        C  0.62443901  0.26925235  0.17721559    -0.01700
C890        C  0.62447695  0.33305178  0.17801518     0.03300
C891        C  0.79161492  0.36383651  0.17932033     0.37900
C892        C  0.56740705  0.23858653  0.17499912     0.37900
C893        C  0.56725094  0.36447354  0.17801085     0.36300
C894        C  0.79089680  0.23772635  0.18171319     0.36300
N895        N  0.52030573  0.38706773  0.17797052    -0.38500
N896        N  0.83672104  0.21320663  0.18274683    -0.38500
N897        N  0.52066043  0.21703708  0.17287516    -0.37900
N898        N  0.83758585  0.38849758  0.17860256    -0.37900
C899        C  0.24868833  0.08780194  0.14131790    -0.04600
C900        C  0.25916622  0.03471542  0.13308208    -0.01700
C901        C  0.26013136  0.03694577  0.11731765     0.03300
C902        C  0.24756268  0.09174002  0.10980265    -0.04600
C903        C  0.22757011  0.14189101  0.11815197    -0.01700
C904        C  0.22575376  0.13882485  0.13389324     0.03300
C905        C  0.26815195  0.97788644  0.14081285     0.37900
C906        C  0.20866594  0.19660126  0.11068669     0.37900
C907        C  0.19678722  0.18623020  0.14244320     0.36300
C908        C  0.27729630  0.98378462  0.10890889     0.36300
N909        N  0.17295043  0.22361123  0.14925666    -0.38500
N910        N  0.29101453  0.94151496  0.10214105    -0.38500
N911        N  0.19325758  0.24094023  0.10506085    -0.37900
N912        N  0.27503855  0.93250655  0.14698734    -0.37900
C913        C  0.54343896  0.07913574  0.17555888    -0.04600
C914        C  0.51119072  0.09534437  0.18860974    -0.01700
C915        C  0.44742528  0.09538975  0.18868176     0.03300
C916        C  0.41478925  0.07970045  0.17565613    -0.04600
C917        C  0.44716117  0.06074416  0.16290666    -0.01700
C918        C  0.51088364  0.06065698  0.16283505     0.03300
C919        C  0.54362174  0.11526015  0.20179481     0.37900
C920        C  0.41574007  0.03688649  0.15006016     0.37900
C921        C  0.54189994  0.03816350  0.14976497     0.36300
C922        C  0.41580965  0.11232865  0.20222299     0.36300
N923        N  0.56263004  0.01846489  0.13897447    -0.38500
N924        N  0.39111816  0.12484020  0.21318406    -0.38500
N925        N  0.39418986  0.01583438  0.13953995    -0.37900
N926        N  0.56960548  0.13129348  0.21227233    -0.37900
C927        C  0.25550039  0.52951676  0.14123354    -0.04600
C928        C  0.27007046  0.58064070  0.13255312    -0.01700
C929        C  0.27080621  0.57640238  0.11680548     0.03300
C930        C  0.25235386  0.52237807  0.10973356    -0.04600
C931        C  0.22863680  0.47493626  0.11848756    -0.01700
C932        C  0.22879413  0.47926183  0.13421757     0.03300
C933        C  0.28261529  0.63777774  0.13979563     0.37900
C934        C  0.20338690  0.42201543  0.11137232     0.37900
C935        C  0.19808073  0.43403075  0.14317721     0.36300
C936        C  0.29459913  0.62593429  0.10795677     0.36300
N937        N  0.17275762  0.39842308  0.15030096    -0.38500
N938        N  0.31422975  0.66495198  0.10083134    -0.38500
N939        N  0.18264524  0.37960267  0.10587864    -0.37900
N940        N  0.29227276  0.68349613  0.14556220    -0.37900
C941        C  0.29300503  0.24316871  0.17477742    -0.04600
C942        C  0.30564593  0.27657556  0.16149762    -0.01700
C943        C  0.30655220  0.34076816  0.16154138     0.03300
C944        C  0.29384072  0.37397874  0.17480629    -0.04600
C945        C  0.29048427  0.34040356  0.18836084    -0.01700
C946        C  0.29106977  0.27640575  0.18834532     0.03300
C947        C  0.31981487  0.24701224  0.14747805     0.37900
C948        C  0.28939796  0.37093148  0.20271271     0.37900
C949        C  0.29382522  0.24537302  0.20263782     0.36300
C950        C  0.32249981  0.37059830  0.14763265     0.36300
N951        N  0.29571349  0.22163705  0.21415681    -0.38500
N952        N  0.33712150  0.39131688  0.13629493    -0.38500
N953        N  0.28749503  0.39420271  0.21427635    -0.37900
N954        N  0.33279132  0.22670459  0.13599732    -0.37900
C955        C  0.41974656  0.53367740  0.17641429    -0.04600
C956        C  0.45056900  0.51608657  0.18956893    -0.01700
C957        C  0.51428421  0.51515216  0.18991410     0.03300
C958        C  0.54793091  0.52918036  0.17692292    -0.04600
C959        C  0.51747377  0.54969724  0.16412654    -0.01700
C960        C  0.45393766  0.55209107  0.16386636     0.03300
C961        C  0.41716946  0.49634371  0.20263233     0.37900
C962        C  0.55119890  0.57274985  0.15148653     0.37900
C963        C  0.42501106  0.57653227  0.15074747     0.36300
C964        C  0.54510247  0.49765154  0.20353903     0.36300
N965        N  0.40623037  0.59758458  0.13990506    -0.38500
N966        N  0.56968095  0.48422233  0.21444265    -0.38500
N967        N  0.57568106  0.59328797  0.14126357    -0.37900
N968        N  0.39117388  0.48071078  0.21317239    -0.37900
C969        C  0.91433281  0.50807769  0.31983140    -0.04600
C970        C  0.94667426  0.45811710  0.31432839    -0.01700
C971        C  0.01042320  0.45738166  0.31468935     0.03300
C972        C  0.04300627  0.50652027  0.32066836    -0.04600
C973        C  0.01072997  0.55886707  0.32491086    -0.01700
C974        C  0.94687307  0.55955772  0.32453687     0.03300
C975        C  0.91532421  0.40866871  0.30718350     0.37900
C976        C  0.04325000  0.61169475  0.33008284     0.37900
C977        C  0.91471816  0.61343711  0.32901519     0.36300
C978        C  0.04109498  0.40749206  0.30766016     0.36300
N979        N  0.88914326  0.65677946  0.33238772    -0.38500
N980        N  0.06009928  0.36627981  0.30133731    -0.38500
N981        N  0.06945637  0.65373870  0.33416887    -0.37900
N982        N  0.89430321  0.36811162  0.30097001    -0.37900
C983        C  0.75201142  0.36724588  0.32378643    -0.04600
C984        C  0.72807061  0.34018443  0.33674642    -0.01700
C985        C  0.73062281  0.27719032  0.33844799     0.03300
C986        C  0.75042017  0.24141382  0.32642656    -0.04600
C987        C  0.76207211  0.26848936  0.31236011    -0.01700
C988        C  0.76120789  0.33156829  0.31098387     0.03300
C989        C  0.69362385  0.37607987  0.34724034     0.37900
C990        C  0.77780487  0.23190274  0.29948463     0.37900
C991        C  0.76599509  0.35938553  0.29633260     0.36300
C992        C  0.71147092  0.24949181  0.35235584     0.36300
N993        N  0.76894407  0.38149103  0.28462317    -0.38500
N994        N  0.69615051  0.22808995  0.36354117    -0.38500
N995        N  0.79029924  0.20263349  0.28923951    -0.37900
N996        N  0.66468948  0.40411830  0.35545387    -0.37900
C997        C  0.03807420  0.11068572  0.32179663    -0.04600
C998        C  0.00488606  0.16530037  0.32262416    -0.01700
C999        C  0.94107935  0.16475062  0.32338501     0.03300
C1000       C  0.90872428  0.10963271  0.32328073    -0.04600
C1001       C  0.94188023  0.05497850  0.32247399    -0.01700
C1002       C  0.00565533  0.05553508  0.32185063     0.03300
C1003       C  0.03539821  0.22311439  0.32321868     0.37900
C1004       C  0.91088162  0.99730159  0.32332105     0.37900
C1005       C  0.03776700  0.99859364  0.32241065     0.36300
C1006       C  0.90977268  0.22189984  0.32456158     0.36300
N1007       N  0.06326989  0.95314194  0.32288310    -0.38500
N1008       N  0.88770236  0.26885179  0.32581924    -0.38500
N1009       N  0.88616325  0.95130954  0.32390963    -0.37900
N1010       N  0.05724305  0.27031956  0.32429800    -0.37900
C1011       C  0.20009226  0.24556151  0.32504953    -0.04600
C1012       C  0.18456528  0.27794254  0.31205398    -0.01700
C1013       C  0.19167143  0.34081443  0.31176627     0.03300
C1014       C  0.20483170  0.37172531  0.32514444    -0.04600
C1015       C  0.22689993  0.33904693  0.33751444    -0.01700
C1016       C  0.22918213  0.27568989  0.33684471     0.03300
C1017       C  0.16001821  0.24679223  0.29916032     0.37900
C1018       C  0.25068035  0.36966347  0.35050202     0.37900
C1019       C  0.26538551  0.24216560  0.34748485     0.36300
C1020       C  0.18739527  0.37311627  0.29768981     0.36300
N1021       N  0.29517203  0.21592686  0.35587182    -0.38500
N1022       N  0.18456289  0.39876959  0.28643634    -0.38500
N1023       N  0.27079080  0.39152325  0.36111263    -0.37900
N1024       N  0.13978614  0.22157890  0.28901683    -0.37900
C1025       C  0.18101122  0.49780905  0.39251923    -0.04600
C1026       C  0.23492149  0.51040160  0.38443611    -0.01700
C1027       C  0.23408067  0.52024060  0.36872910     0.03300
C1028       C  0.17932279  0.51713658  0.36056093    -0.04600
C1029       C  0.12590039  0.50415736  0.36853188    -0.01700
C1030       C  0.12734227  0.48965509  0.38392878     0.03300
C1031       C  0.29285517  0.50662906  0.39189399     0.37900
C1032       C  0.06767309  0.50753998  0.36119211     0.37900
C1033       C  0.07303394  0.46266235  0.39002853     0.36300
C1034       C  0.29085193  0.52994955  0.36097840     0.36300
N1035       N  0.02881792  0.43987622  0.39404281    -0.38500
N1036       N  0.33625522  0.53746727  0.35484806    -0.38500
N1037       N  0.01980211  0.50964618  0.35612012    -0.37900
N1038       N  0.33924146  0.50326497  0.39773612    -0.37900
C1039       C  0.17580938  0.09148244  0.36010380    -0.04600
C1040       C  0.17554161  0.14333975  0.36940982    -0.01700
C1041       C  0.19117324  0.13879901  0.38456784     0.03300
C1042       C  0.19433811  0.08220879  0.39175526    -0.04600
C1043       C  0.18852325  0.02958067  0.38291473    -0.01700
C1044       C  0.17973068  0.03415957  0.36721506     0.03300
C1045       C  0.15437900  0.20181047  0.36441385     0.37900
C1046       C  0.18937320  0.97057276  0.38993241     0.37900
C1047       C  0.16817994  0.97971681  0.35868711     0.36300
C1048       C  0.20660200  0.19406833  0.39233430     0.36300
N1049       N  0.15841941  0.93636202  0.35190234    -0.38500
N1050       N  0.21909955  0.24050697  0.39732512    -0.38500
N1051       N  0.18986384  0.92331065  0.39544994    -0.37900
N1052       N  0.13602092  0.24909217  0.36132547    -0.37900
C1053       C  0.18597482  0.22457906  0.42931312    -0.04600
C1054       C  0.13099282  0.25665529  0.42924430    -0.01700
C1055       C  0.13019653  0.31951012  0.43133269     0.03300
C1056       C  0.18374250  0.35383057  0.43099635    -0.04600
C1057       C  0.23935172  0.32248560  0.43024193    -0.01700
C1058       C  0.24052219  0.25837650  0.42996772     0.03300
C1059       C  0.07413667  0.22727438  0.42604136     0.37900
C1060       C  0.29558176  0.35574776  0.42911586     0.37900
C1061       C  0.29811540  0.22786411  0.42867804     0.36300
C1062       C  0.07322194  0.34680253  0.43501291     0.36300
N1063       N  0.34406010  0.20361472  0.42757707    -0.38500
N1064       N  0.02576084  0.36302304  0.43836645    -0.38500
N1065       N  0.34058661  0.38206307  0.42824013    -0.37900
N1066       N  0.02806540  0.20719021  0.42259911    -0.37900
C1067       C  0.75958445  0.51182507  0.39128020    -0.04600
C1068       C  0.76610339  0.45766932  0.38324384    -0.01700
C1069       C  0.78344376  0.45840357  0.36811867     0.03300
C1070       C  0.77835689  0.51218788  0.35948805    -0.04600
C1071       C  0.76916567  0.56704721  0.36748696    -0.01700
C1072       C  0.76143018  0.56688974  0.38325984     0.03300
C1073       C  0.75205530  0.40004215  0.39018498     0.37900
C1074       C  0.77336788  0.62469583  0.35985268     0.37900
C1075       C  0.75779710  0.62381477  0.39120118     0.36300
C1076       C  0.81112881  0.40381669  0.36251385     0.36300
N1077       N  0.75515831  0.66925402  0.39752729    -0.38500
N1078       N  0.83436443  0.35943800  0.35887893    -0.38500
N1079       N  0.77642179  0.67101874  0.35390587    -0.37900
N1080       N  0.74003835  0.35318356  0.39507795    -0.37900
C1081       C  0.91115411  0.51577437  0.42721577    -0.04600
C1082       C  0.94652108  0.54143115  0.41573640    -0.01700
C1083       C  0.00982758  0.54178604  0.41699988     0.03300
C1084       C  0.03773061  0.51129644  0.42897040    -0.04600
C1085       C  0.00262224  0.49348821  0.44134954    -0.01700
C1086       C  0.93934691  0.49476424  0.44040485     0.03300
C1087       C  0.91823051  0.56924751  0.40288362     0.37900
C1088       C  0.03168968  0.47395223  0.45505384     0.37900
C1089       C  0.90340589  0.47251181  0.45281711     0.36300
C1090       C  0.04567489  0.57813277  0.40680718     0.36300
N1091       N  0.87473564  0.45489573  0.46272889    -0.38500
N1092       N  0.07360609  0.60808733  0.39874434    -0.38500
N1093       N  0.05514662  0.45790076  0.46589190    -0.37900
N1094       N  0.89704487  0.59196519  0.39250535    -0.37900
C1095       C  0.77661621  0.09475815  0.39509718    -0.04600
C1096       C  0.72108167  0.08648937  0.38732327    -0.01700
C1097       C  0.71899086  0.08540630  0.37142719     0.03300
C1098       C  0.77242472  0.08986401  0.36277935    -0.04600
C1099       C  0.82754674  0.09767249  0.37043373    -0.01700
C1100       C  0.82917411  0.10454763  0.38616467     0.03300
C1101       C  0.66448667  0.08393475  0.39547194     0.37900
C1102       C  0.88431327  0.09742966  0.36232494     0.37900
C1103       C  0.88565225  0.12542916  0.39242697     0.36300
C1104       C  0.66081954  0.08350352  0.36403794     0.36300
N1105       N  0.93142139  0.14423780  0.39655961    -0.38500
N1106       N  0.61427297  0.08247275  0.35821865    -0.38500
N1107       N  0.93104742  0.09758423  0.35656964    -0.37900
N1108       N  0.61909370  0.08145263  0.40185015    -0.37900
C1109       C  0.92030235  0.07827029  0.43212188    -0.04600
C1110       C  0.94650903  0.04754357  0.42002428    -0.01700
C1111       C  0.00924267  0.04926632  0.41798586     0.03300
C1112       C  0.04613506  0.07451997  0.42914147    -0.04600
C1113       C  0.01993266  0.09607088  0.44255443    -0.01700
C1114       C  0.95680638  0.09673411  0.44414729     0.03300
C1115       C  0.90933601  0.01037850  0.41037523     0.37900
C1116       C  0.05755739  0.12185356  0.45418196     0.37900
C1117       C  0.92953252  0.11521163  0.45817218     0.36300
C1118       C  0.03498019  0.02636422  0.40425204     0.36300
N1119       N  0.90778256  0.12985374  0.46935950    -0.38500
N1120       N  0.05371959  0.00866053  0.39302027    -0.38500
N1121       N  0.08765441  0.14314967  0.46332769    -0.37900
N1122       N  0.87984427  0.97984044  0.40285621    -0.37900
C1123       C  0.77378995  0.23580209  0.43260890    -0.04600
C1124       C  0.82719042  0.27055125  0.43285362    -0.01700
C1125       C  0.82632173  0.33242420  0.42934079     0.03300
C1126       C  0.77136341  0.36414611  0.42865573    -0.04600
C1127       C  0.71695772  0.33029809  0.42934171    -0.01700
C1128       C  0.71831536  0.26638178  0.43059741     0.03300
C1129       C  0.88348579  0.24508390  0.43784725     0.37900
C1130       C  0.65964142  0.36047221  0.42726153     0.37900
C1131       C  0.66274892  0.23233387  0.42910701     0.36300
C1132       C  0.88232863  0.36073270  0.42493594     0.36300
N1133       N  0.61839240  0.20522211  0.42785067    -0.38500
N1134       N  0.92672359  0.38100848  0.42035136    -0.38500
N1135       N  0.61399731  0.38465012  0.42553186    -0.37900
N1136       N  0.92981404  0.22960133  0.44225424    -0.37900
C1137       C  0.77665467  0.72782953  0.57319442    -0.04600
C1138       C  0.72285269  0.76122800  0.57083564    -0.01700
C1139       C  0.72364903  0.82517120  0.57040535     0.03300
C1140       C  0.77772398  0.85787899  0.57309752    -0.04600
C1141       C  0.83136274  0.82457078  0.57543749    -0.01700
C1142       C  0.83091402  0.76060841  0.57540925     0.03300
C1143       C  0.66500830  0.73052573  0.57013175     0.37900
C1144       C  0.88846133  0.85510459  0.57771332     0.37900
C1145       C  0.88737687  0.72964515  0.57797835     0.36300
C1146       C  0.66722743  0.85673801  0.56793073     0.36300
N1147       N  0.93325256  0.70732906  0.58057138    -0.38500
N1148       N  0.62214003  0.88148616  0.56581715    -0.38500
N1149       N  0.93519822  0.87663662  0.57983028    -0.37900
N1150       N  0.61872202  0.70640924  0.56959842    -0.37900
C1151       C  0.04388064  0.01530181  0.57689420    -0.04600
C1152       C  0.00966085  0.01811607  0.56355115    -0.01700
C1153       C  0.94628099  0.01435920  0.56407380     0.03300
C1154       C  0.91543232  0.01209697  0.57798742    -0.04600
C1155       C  0.94937799  0.01102189  0.59131310    -0.01700
C1156       C  0.01306937  0.01238859  0.59077787     0.03300
C1157       C  0.03927265  0.02031813  0.54903825     0.37900
C1158       C  0.91937142  0.00726181  0.60571153     0.37900
C1159       C  0.04582485  0.01213758  0.60476567     0.36300
C1160       C  0.91345409  0.00812930  0.55010434     0.36300
N1161       N  0.06892274  0.01150056  0.61634202    -0.38500
N1162       N  0.88745181  0.00316190  0.53896640    -0.38500
N1163       N  0.89688780  0.00312509  0.61735101    -0.37900
N1164       N  0.06252843  0.02177000  0.53744891    -0.37900
C1165       C  0.91173683  0.57298570  0.57499525    -0.04600
C1166       C  0.94660116  0.55150840  0.58698501    -0.01700
C1167       C  0.00986279  0.55237642  0.58597953     0.03300
C1168       C  0.03795621  0.57766354  0.57329372    -0.04600
C1169       C  0.00341858  0.58936908  0.56042749    -0.01700
C1170       C  0.94021860  0.58919113  0.56139554     0.03300
C1171       C  0.91757086  0.52488582  0.59988776     0.37900
C1172       C  0.03287699  0.60021969  0.54615991     0.37900
C1173       C  0.90479820  0.60724594  0.54852475     0.36300
C1174       C  0.04565286  0.52185547  0.59723144     0.36300
N1175       N  0.87649101  0.62140803  0.53825436    -0.38500
N1176       N  0.07368882  0.49656098  0.60614873    -0.38500
N1177       N  0.05656024  0.60857663  0.53480474    -0.37900
N1178       N  0.89505953  0.50224064  0.61011502    -0.37900
C1179       C  0.18519884  0.86326618  0.56974541    -0.04600
C1180       C  0.13194124  0.83227384  0.56609104    -0.01700
C1181       C  0.13056177  0.76870427  0.56591447     0.03300
C1182       C  0.18299905  0.73484936  0.56905463    -0.04600
C1183       C  0.23790187  0.76613718  0.57144668    -0.01700
C1184       C  0.23909877  0.83003372  0.57162939     0.03300
C1185       C  0.07908822  0.86525052  0.56132600     0.37900
C1186       C  0.29284671  0.73285613  0.57437971     0.37900
C1187       C  0.29537987  0.86140135  0.57448512     0.36300
C1188       C  0.07468792  0.73957467  0.56184263     0.36300
N1189       N  0.34033239  0.88641663  0.57669826    -0.38500
N1190       N  0.02802519  0.72145205  0.55829977    -0.38500
N1191       N  0.33670944  0.70620608  0.57663366    -0.37900
N1192       N  0.03592618  0.88834895  0.55695802    -0.37900
C1193       C  0.20554859  0.99527668  0.64149140    -0.04600
C1194       C  0.20831137  0.94138144  0.63294893    -0.01700
C1195       C  0.20672238  0.94313059  0.61721080     0.03300
C1196       C  0.20343545  0.99857639  0.60954637    -0.04600
C1197       C  0.20132833  0.05277124  0.61794920    -0.01700
C1198       C  0.20215166  0.05112681  0.63377823     0.03300
C1199       C  0.21059466  0.88233527  0.63987054     0.37900
C1200       C  0.19218291  0.11008895  0.61041523     0.37900
C1201       C  0.19468670  0.10698784  0.64202327     0.36300
C1202       C  0.20640080  0.88637881  0.60913996     0.36300
N1203       N  0.18868364  0.15162515  0.64855433    -0.38500
N1204       N  0.20470475  0.83924707  0.60363136    -0.38500
N1205       N  0.18447561  0.15574298  0.60442590    -0.37900
N1206       N  0.21013646  0.83290852  0.64401555    -0.37900
C1207       C  0.74238264  0.99855166  0.64244920    -0.04600
C1208       C  0.75930683  0.05204432  0.63487000    -0.01700
C1209       C  0.76248498  0.05306720  0.61910277     0.03300
C1210       C  0.74875575  0.00068208  0.61079934    -0.04600
C1211       C  0.72662444  0.94934395  0.61823402    -0.01700
C1212       C  0.72440205  0.94772668  0.63397704     0.03300
C1213       C  0.77614327  0.10537661  0.64326507     0.37900
C1214       C  0.70277563  0.89929097  0.60965945     0.37900
C1215       C  0.70251926  0.89337823  0.64111928     0.36300
C1216       C  0.78179812  0.10750457  0.61143669     0.36300
N1217       N  0.68399360  0.84819731  0.64569285    -0.38500
N1218       N  0.79686612  0.15093812  0.60526909    -0.38500
N1219       N  0.68183338  0.85969250  0.60305057    -0.37900
N1220       N  0.78921458  0.14810001  0.64994500    -0.37900
C1221       C  0.91348705  0.99820088  0.67128622    -0.04600
C1222       C  0.94783205  0.05148391  0.67386493    -0.01700
C1223       C  0.01200168  0.04986925  0.67469724     0.03300
C1224       C  0.04417407  0.99453036  0.67342231    -0.04600
C1225       C  0.00995356  0.94278216  0.66921016    -0.01700
C1226       C  0.94674428  0.94598418  0.66704721     0.03300
C1227       C  0.91795784  0.10966280  0.67422126     0.37900
C1228       C  0.03739404  0.88412765  0.66693817     0.37900
C1229       C  0.91887645  0.89457853  0.65975122     0.36300
C1230       C  0.04448405  0.10653849  0.67601248     0.36300
N1231       N  0.90029663  0.85233580  0.65367325    -0.38500
N1232       N  0.06993147  0.15199678  0.67706061    -0.38500
N1233       N  0.05562554  0.83628435  0.66443491    -0.37900
N1234       N  0.89463457  0.15631811  0.67445918    -0.37900
C1235       C  0.18145988  0.59725933  0.64221838    -0.04600
C1236       C  0.12953345  0.61658787  0.63412047    -0.01700
C1237       C  0.12981497  0.62100608  0.61827792     0.03300
C1238       C  0.18160360  0.60502270  0.60969792    -0.04600
C1239       C  0.23542667  0.59353961  0.61782735    -0.01700
C1240       C  0.23535855  0.58913352  0.63370515     0.03300
C1241       C  0.07381441  0.63352853  0.64151285     0.37900
C1242       C  0.29291694  0.59075539  0.61004259     0.37900
C1243       C  0.29284558  0.57947424  0.64105007     0.36300
C1244       C  0.07510059  0.64372538  0.61141474     0.36300
N1245       N  0.33920490  0.57109638  0.64659280    -0.38500
N1246       N  0.03025731  0.66313698  0.60688278    -0.38500
N1247       N  0.33892414  0.58830789  0.60394655    -0.37900
N1248       N  0.02820095  0.64927994  0.64645530    -0.37900
C1249       C  0.19063756  0.72395446  0.68136370    -0.04600
C1250       C  0.14524447  0.75845045  0.68830013    -0.01700
C1251       C  0.14870361  0.82168163  0.68806720     0.03300
C1252       C  0.19477190  0.85023523  0.67989622    -0.04600
C1253       C  0.24469822  0.81647837  0.67496347    -0.01700
C1254       C  0.24220324  0.75308047  0.67542059     0.03300
C1255       C  0.09576130  0.72972895  0.69607644     0.37900
C1256       C  0.29804872  0.84697380  0.66926720     0.37900
C1257       C  0.29222924  0.71819753  0.66959758     0.36300
C1258       C  0.10649481  0.85745037  0.69674165     0.36300
N1259       N  0.33262063  0.69067424  0.66510282    -0.38500
N1260       N  0.07326125  0.88602607  0.70374878    -0.38500
N1261       N  0.34046494  0.87136361  0.66470595    -0.37900
N1262       N  0.05545396  0.70943088  0.70256509    -0.37900
C1263       C  0.76526129  0.58258791  0.64234552    -0.04600
C1264       C  0.76381416  0.63710919  0.63410102    -0.01700
C1265       C  0.75590211  0.63635367  0.61847127     0.03300
C1266       C  0.75588421  0.58157849  0.61047067    -0.04600
C1267       C  0.75742186  0.52672234  0.61859691    -0.01700
C1268       C  0.76106402  0.52722474  0.63441899     0.03300
C1269       C  0.77195133  0.69510898  0.64125916     0.37900
C1270       C  0.75840584  0.46948277  0.61074742     0.37900
C1271       C  0.76536829  0.47030714  0.64239737     0.36300
C1272       C  0.74481825  0.69280570  0.61080215     0.36300
N1273       N  0.76910325  0.42496491  0.64876080    -0.38500
N1274       N  0.73511634  0.73885452  0.60525241    -0.38500
N1275       N  0.75959079  0.42367970  0.60455564    -0.37900
N1276       N  0.78017521  0.74297311  0.64597732    -0.37900
C1277       C  0.77684426  0.72555014  0.67911538    -0.04600
C1278       C  0.72097083  0.75520769  0.67690392    -0.01700
C1279       C  0.71741289  0.81829740  0.67807981     0.03300
C1280       C  0.77027225  0.85233853  0.68021217    -0.04600
C1281       C  0.82432817  0.82291974  0.68395175    -0.01700
C1282       C  0.82845293  0.75978693  0.68273337     0.03300
C1283       C  0.66795042  0.72149367  0.67232389     0.37900
C1284       C  0.87318168  0.85663119  0.69076147     0.37900
C1285       C  0.88592947  0.73089840  0.68526211     0.36300
C1286       C  0.65917177  0.84802200  0.67755362     0.36300
N1287       N  0.93295524  0.70987779  0.68712315    -0.38500
N1288       N  0.61280985  0.87183163  0.67724255    -0.38500
N1289       N  0.91192396  0.88256311  0.69657629    -0.37900
N1290       N  0.62582442  0.69480664  0.66849883    -0.37900
C1291       C  0.91575005  0.56680849  0.67951951    -0.04600
C1292       C  0.95007144  0.54906406  0.66700240    -0.01700
C1293       C  0.01321436  0.54472090  0.66805365     0.03300
C1294       C  0.04294349  0.56575852  0.68089250    -0.04600
C1295       C  0.00907864  0.57457594  0.69406443    -0.01700
C1296       C  0.94542740  0.57541160  0.69339362     0.03300
C1297       C  0.92093649  0.53420608  0.65306787     0.37900
C1298       C  0.03946816  0.57991289  0.70833844     0.37900
C1299       C  0.91098842  0.58802463  0.70682774     0.36300
C1300       C  0.04702592  0.51298620  0.65662293     0.36300
N1301       N  0.88344432  0.59791975  0.71754289    -0.38500
N1302       N  0.07361901  0.48647212  0.64764599    -0.38500
N1303       N  0.06376623  0.58340228  0.71974413    -0.37900
N1304       N  0.89890883  0.52246688  0.64175379    -0.37900
C1305       C  0.42221935  0.02066731  0.92524809    -0.04600
C1306       C  0.45586073  0.02021841  0.91187873    -0.01700
C1307       C  0.51910360  0.01441478  0.91224259     0.03300
C1308       C  0.55028642  0.01432705  0.92604415    -0.04600
C1309       C  0.51643157  0.01812620  0.93950726    -0.01700
C1310       C  0.45292874  0.01865387  0.93909317     0.03300
C1311       C  0.42590276  0.02673350  0.89758856     0.37900
C1312       C  0.54612780  0.01671751  0.95398056     0.37900
C1313       C  0.41939744  0.01294160  0.95299582     0.36300
C1314       C  0.55059764  0.00738560  0.89818277     0.36300
N1315       N  0.39255639  0.00819983  0.96404338    -0.38500
N1316       N  0.57247753  0.99974385  0.88660607    -0.38500
N1317       N  0.56940423  0.01536219  0.96554578    -0.37900
N1318       N  0.40359123  0.03208595  0.88599946    -0.37900
C1319       C  0.27358071  0.73864440  0.92611272    -0.04600
C1320       C  0.22086793  0.77344190  0.92856055    -0.01700
C1321       C  0.22390318  0.83724342  0.92929639     0.03300
C1322       C  0.28020283  0.86771547  0.92858478    -0.04600
C1323       C  0.33287165  0.83280970  0.92654032    -0.01700
C1324       C  0.32928796  0.76957693  0.92457255     0.03300
C1325       C  0.16229879  0.74421038  0.92929619     0.37900
C1326       C  0.39166179  0.86137693  0.92608740     0.37900
C1327       C  0.38346675  0.73829193  0.92006126     0.36300
C1328       C  0.16812945  0.87132284  0.92947744     0.36300
N1329       N  0.42760354  0.71687726  0.91572289    -0.38500
N1330       N  0.12354261  0.89833204  0.92950142    -0.38500
N1331       N  0.43932869  0.88234255  0.92535082    -0.37900
N1332       N  0.11560655  0.72092442  0.92993750    -0.37900
C1333       C  0.68162194  0.73357444  0.92920230    -0.04600
C1334       C  0.73834526  0.76293922  0.92812387    -0.01700
C1335       C  0.74266019  0.82652472  0.92944094     0.03300
C1336       C  0.69006491  0.86167190  0.93132763    -0.04600
C1337       C  0.63471275  0.83172523  0.93376165    -0.01700
C1338       C  0.63015740  0.76846894  0.93229437     0.03300
C1339       C  0.79200213  0.72805494  0.92484097     0.37900
C1340       C  0.58367794  0.86443640  0.93962213     0.37900
C1341       C  0.57238824  0.73966965  0.93466803     0.36300
C1342       C  0.80111023  0.85571271  0.92829456     0.36300
N1343       N  0.52530222  0.71902938  0.93681084    -0.38500
N1344       N  0.84773025  0.87889835  0.92723668    -0.38500
N1345       N  0.54222389  0.88702298  0.94505407    -0.37900
N1346       N  0.83458638  0.69995195  0.92218177    -0.37900
C1347       C  0.53582614  0.58204529  0.92338353    -0.04600
C1348       C  0.50167492  0.58513276  0.93673575    -0.01700
C1349       C  0.43828044  0.58876540  0.93618348     0.03300
C1350       C  0.40741124  0.58515888  0.92233480    -0.04600
C1351       C  0.44145478  0.58236861  0.90900737    -0.01700
C1352       C  0.50513299  0.58093752  0.90952483     0.03300
C1353       C  0.53167818  0.58951993  0.95112045     0.37900
C1354       C  0.41162120  0.58531687  0.89464695     0.37900
C1355       C  0.53835367  0.57850567  0.89561332     0.36300
C1356       C  0.40543808  0.60204834  0.94985055     0.36300
N1357       N  0.56289421  0.57742939  0.88421464    -0.38500
N1358       N  0.37926715  0.61312712  0.96070387    -0.38500
N1359       N  0.38874390  0.59026079  0.88311132    -0.37900
N1360       N  0.55553452  0.59316251  0.96257894    -0.37900
C1361       C  0.27815440  0.00334869  0.85894833    -0.04600
C1362       C  0.29321240  0.95330949  0.86815319    -0.01700
C1363       C  0.27645684  0.95250526  0.88325726     0.03300
C1364       C  0.26466326  0.00676444  0.89087847    -0.04600
C1365       C  0.25904882  0.06026075  0.88227313    -0.01700
C1366       C  0.26206043  0.05794756  0.86641336     0.03300
C1367       C  0.33269910  0.90503833  0.86342003     0.37900
C1368       C  0.25373258  0.11842283  0.88958168     0.37900
C1369       C  0.25681101  0.11412958  0.85814170     0.36300
C1370       C  0.26994863  0.89428368  0.89050553     0.36300
N1371       N  0.25341326  0.15930059  0.85168650    -0.38500
N1372       N  0.26449585  0.84624062  0.89538915    -0.38500
N1373       N  0.24973998  0.16498153  0.89534129    -0.37900
N1374       N  0.36557690  0.86628396  0.86048423    -0.37900
C1375       C  0.70215547  0.00404241  0.86060340    -0.04600
C1376       C  0.69633416  0.05886328  0.86861853    -0.01700
C1377       C  0.69598861  0.05871439  0.88447779     0.03300
C1378       C  0.70697936  0.00462695  0.89248732    -0.04600
C1379       C  0.71952376  0.95172387  0.88436806    -0.01700
C1380       C  0.71606766  0.95115318  0.86862438     0.03300
C1381       C  0.69073402  0.11554991  0.86062831     0.37900
C1382       C  0.74041127  0.89822425  0.89195670     0.37900
C1383       C  0.73285690  0.89682134  0.86076979     0.36300
C1384       C  0.67963577  0.11319373  0.89247154     0.36300
N1385       N  0.74859305  0.85258498  0.85521229    -0.38500
N1386       N  0.66567072  0.15640734  0.89883494    -0.38500
N1387       N  0.75928378  0.85439487  0.89710114    -0.37900
N1388       N  0.68695396  0.16092698  0.85428244    -0.37900
C1389       C  0.54645738  0.01234119  0.82400133    -0.04600
C1390       C  0.51136791  0.03408375  0.83592418    -0.01700
C1391       C  0.44807668  0.03541733  0.83478636     0.03300
C1392       C  0.41895971  0.01371482  0.82184714    -0.04600
C1393       C  0.45411026  0.99682499  0.80939357    -0.01700
C1394       C  0.51767297  0.99597438  0.81045390     0.03300
C1395       C  0.53995324  0.05855910  0.84912606     0.37900
C1396       C  0.42513534  0.98082095  0.79544997     0.37900
C1397       C  0.55317478  0.97531182  0.79783054     0.36300
C1398       C  0.41390337  0.06432392  0.84651990     0.36300
N1399       N  0.58148989  0.95882486  0.78776304    -0.38500
N1400       N  0.38979303  0.09000546  0.85602452    -0.38500
N1401       N  0.40259425  0.96931939  0.78415584    -0.37900
N1402       N  0.56028640  0.07965456  0.85979612    -0.37900
C1403       C  0.24412215  0.57507896  0.85839420    -0.04600
C1404       C  0.21385922  0.62360382  0.86522278    -0.01700
C1405       C  0.21466896  0.62958279  0.88094170     0.03300
C1406       C  0.24187763  0.58449152  0.88978904    -0.04600
C1407       C  0.26098263  0.53030183  0.88292868    -0.01700
C1408       C  0.26026778  0.52506146  0.86721388     0.03300
C1409       C  0.17980404  0.66549827  0.85609119     0.37900
C1410       C  0.28430180  0.48126665  0.89195747     0.37900
C1411       C  0.27323960  0.46773723  0.86013788     0.36300
C1412       C  0.18759299  0.68185258  0.88793274     0.36300
N1413       N  0.28312037  0.42183158  0.85450021    -0.38500
N1414       N  0.16564349  0.72375321  0.89336890    -0.38500
N1415       N  0.30319111  0.44244605  0.89922088    -0.37900
N1416       N  0.15234003  0.69856240  0.84876641    -0.37900
C1417       C  0.29247555  0.72441525  0.82380915    -0.04600
C1418       C  0.28355355  0.75933470  0.83684581    -0.01700
C1419       C  0.26901501  0.82082363  0.83562716     0.03300
C1420       C  0.28155578  0.85267596  0.82238641    -0.04600
C1421       C  0.29691335  0.81956617  0.80947413    -0.01700
C1422       C  0.30038324  0.75576358  0.81005964     0.03300
C1423       C  0.29594502  0.73595421  0.85160268     0.37900
C1424       C  0.30521740  0.85035350  0.79532001     0.37900
C1425       C  0.31456876  0.72319589  0.79648526     0.36300
C1426       C  0.23079092  0.84747984  0.84695406     0.36300
N1427       N  0.32528460  0.69863575  0.78540428    -0.38500
N1428       N  0.19820904  0.86703791  0.85581891    -0.38500
N1429       N  0.31057920  0.87373524  0.78382489    -0.37900
N1430       N  0.30845715  0.72032725  0.86355073    -0.37900
C1431       C  0.69762597  0.59092781  0.85831974    -0.04600
C1432       C  0.70499319  0.53704908  0.86668677    -0.01700
C1433       C  0.70289187  0.53796219  0.88252569     0.03300
C1434       C  0.69698306  0.59328628  0.89041998    -0.04600
C1435       C  0.69266837  0.64720559  0.88202840    -0.01700
C1436       C  0.69143206  0.64588722  0.86624413     0.03300
C1437       C  0.71022596  0.47942285  0.85909387     0.37900
C1438       C  0.68743566  0.70507017  0.88944062     0.37900
C1439       C  0.68185881  0.70232886  0.85850751     0.36300
C1440       C  0.70158369  0.48088288  0.89049379     0.36300
N1441       N  0.67191176  0.74899313  0.85332385    -0.38500
N1442       N  0.70040596  0.43518659  0.89676943    -0.38500
N1443       N  0.68110831  0.75188053  0.89489521    -0.37900
N1444       N  0.71432380  0.43340622  0.85307904    -0.37900
C1445       C  0.67574623  0.72713618  0.82073589    -0.04600
C1446       C  0.73181304  0.75799770  0.82113946    -0.01700
C1447       C  0.73383426  0.82144033  0.82224543     0.03300
C1448       C  0.67984993  0.85551463  0.82348907    -0.04600
C1449       C  0.62393826  0.82429670  0.82327761    -0.01700
C1450       C  0.62198968  0.76088647  0.82154655     0.03300
C1451       C  0.78816156  0.72459919  0.82140671     0.37900
C1452       C  0.56735365  0.85584015  0.82507126     0.37900
C1453       C  0.56392343  0.73079140  0.82078964     0.36300
C1454       C  0.79242701  0.85073564  0.82323816     0.36300
N1455       N  0.51664560  0.70873671  0.82035451    -0.38500
N1456       N  0.83929039  0.87353803  0.82409568    -0.38500
N1457       N  0.52039405  0.87728179  0.82682567    -0.37900
N1458       N  0.83302789  0.69803539  0.82154516    -0.37900
C1459       C  0.54256505  0.56286416  0.82378812    -0.04600
C1460       C  0.50941453  0.57609168  0.81076864    -0.01700
C1461       C  0.44578737  0.57354521  0.81097792     0.03300
C1462       C  0.41433361  0.56074270  0.82447521    -0.04600
C1463       C  0.44816447  0.54301259  0.83711307    -0.01700
C1464       C  0.51184342  0.54309601  0.83665736     0.03300
C1465       C  0.54084098  0.59453686  0.79725404     0.37900
C1466       C  0.41869284  0.51913026  0.85024631     0.37900
C1467       C  0.54562181  0.51791459  0.84901344     0.36300
C1468       C  0.41362865  0.58206536  0.79706215     0.36300
N1469       N  0.57128203  0.49559337  0.85879451    -0.38500
N1470       N  0.38915372  0.58639240  0.78570576    -0.38500
N1471       N  0.39937221  0.49773068  0.86101913    -0.37900
N1472       N  0.56626756  0.60944776  0.78655761    -0.37900
loop_ 
_geom_bond_atom_site_label_1 
_geom_bond_atom_site_label_2 
_geom_bond_distance 
_geom_bond_site_symmetry_2 
_ccdc_geom_bond_type 
C1            C2   1.529       .  S
C1            C7   1.532       .  S
C1            C5   1.541       .  S
C1          C267   1.505       .  S
C2            H9   1.086       .  S
C2            C3   1.362       .  D
C3            C4   1.548       .  S
C3         C1445   1.498       .  S
C4            C8   1.541       .  S
C4            C6   1.545       .  S
C4           H10   1.108       .  S
C5           H11   1.085       .  S
C5            C6   1.375       .  D
C6         C1431   1.512       .  S
C7           H12   1.086       .  S
C7            C8   1.363       .  D
C8         C1459   1.490       .  S
C13          C14   1.533       .  S
C13          C19   1.538       .  S
C13          C17   1.526       .  S
C13         C295   1.504       .  S
C14          H21   1.086       .  S
C14          C15   1.364       .  D
C15          C16   1.550       .  S
C15        C1462   1.506       .  S
C16          C20   1.550       .  S
C16          C18   1.558       .  S
C16          H22   1.107       .  S
C17          H23   1.086       .  S
C17          C18   1.359       .  D
C18        C1403   1.490       .  S
C19          H24   1.085       .  S
C19          C20   1.374       .  D
C20        C1417   1.513       .  S
C25          C26   1.527       .  S
C25          C31   1.532   1_545  S
C25          C29   1.533       .  S
C25         C241   1.500       .  S
C26          H33   1.087       .  S
C26          C27   1.361       .  D
C27          C28   1.550   1_545  S
C27        C1389   1.491       .  S
C28          C32   1.552       .  S
C28          C30   1.554   1_565  S
C28          H34   1.110       .  S
C29          H35   1.086       .  S
C29          C30   1.366       .  D
C30        C1375   1.504       .  S
C31          H36   1.085       .  S
C31          C32   1.367       .  D
C32        C1448   1.508       .  S
C37          C38   1.536   1_545  S
C37          C43   1.537       .  S
C37          C41   1.541       .  S
C37         C217   1.508       .  S
C38          H45   1.086       .  S
C38          C39   1.362       .  D
C39          C40   1.549       .  S
C39        C1420   1.498       .  S
C40          C44   1.532   1_565  S
C40          C42   1.552       .  S
C40          H46   1.095       .  S
C41          H47   1.084       .  S
C41          C42   1.381   1_545  D
C42        C1361   1.526   1_565  S
C43          H48   1.086       .  S
C43          C44   1.359       .  D
C44        C1392   1.492       .  S
C49          C50   1.534       .  S
C49          C55   1.529       .  S
C49          C53   1.535       .  S
C49         C443   1.505       .  S
C50          H57   1.086       .  S
C50          C51   1.366       .  D
C51          C52   1.542       .  S
C51        C1347   1.501       .  S
C52          C56   1.549       .  S
C52          C54   1.555       .  S
C52          H58   1.107       .  S
C53          H59   1.085       .  S
C53          C54   1.374       .  D
C54        C1434   1.512       .  S
C55          H60   1.087       .  S
C55          C56   1.360       .  D
C56        C1333   1.501       .  S
C61          C62   1.538       .  S
C61          C67   1.529       .  S
C61          C65   1.528       .  S
C61         C493   1.504       .  S
C62          H69   1.086       .  S
C62          C63   1.372       .  D
C63          C64   1.547       .  S
C63        C1319   1.514       .  S
C64          C68   1.552       .  S
C64          C66   1.547       .  S
C64          H70   1.107       .  S
C65          H71   1.086       .  S
C65          C66   1.362       .  D
C66        C1406   1.490       .  S
C67          H72   1.086       .  S
C67          C68   1.365       .  D
C68        C1350   1.501       .  S
C73          C74   1.536       .  S
C73          C79   1.541   1_545  S
C73          C77   1.532       .  S
C73         C402   1.509       .  S
C74          H81   1.086       .  S
C74          C75   1.370       .  D
C75          C76   1.551   1_545  S
C75        C1378   1.501       .  S
C76          C80   1.544       .  S
C76          C78   1.546   1_565  S
C76          H82   1.109       .  S
C77          H83   1.086       .  S
C77          C78   1.365       .  D
C78        C1308   1.500       .  S
C79          H84   1.086       .  S
C79          C80   1.366       .  D
C80        C1336   1.503       .  S
C85          C86   1.529       .  S
C85          C91   1.539   1_545  S
C85          C89   1.538       .  S
C85         C467   1.506       .  S
C86          H93   1.086       .  S
C86          C87   1.359       .  D
C87          C88   1.540   1_545  S
C87        C1305   1.493       .  S
C88          C92   1.545       .  S
C88          C90   1.546   1_565  S
C88          H94   1.106       .  S
C89          H95   1.085       .  S
C89          C90   1.372       .  D
C90        C1364   1.506       .  S
C91          H96   1.086       .  S
C91          C92   1.370       .  D
C92        C1322   1.511       .  S
O97         C100   1.264       .  A
O97        Cd102   2.473       .  S
C98         C529   1.507       .  S
C98         O107   1.270   1_545  A
C98         O103   1.265       .  A
O99         C105   1.266       .  A
O99        Cd102   2.514       .  S
C100        O108   1.261       .  A
C100        C150   1.454       .  S
C101        O106   1.266   1_545  A
C101        O104   1.264       .  A
C101        C118   1.473       .  S
Cd102       O109   2.465       .  S
Cd102       O108   2.415       .  S
Cd102       O107   2.430       .  S
Cd102       O103   2.484   1_565  S
Cd102       O106   2.491       .  S
Cd102       O104   2.483   1_565  S
C105        O109   1.263       .  A
C105        C127   1.473       .  S
O110        C113   1.264       .  A
O110       Cd115   2.440       .  S
C111        O120   1.263       .  A
C111        O116   1.265       .  A
C111        C163   1.456       .  S
O112        C118   1.267       .  A
O112       Cd115   2.494       .  S
C113        C365   1.496       .  S
C113        O121   1.267       .  A
C114        O119   1.268       .  A
C114        O117   1.263       .  A
C114        C140   1.469       .  S
Cd115       O122   2.479       .  S
Cd115       O121   2.446       .  S
Cd115       O120   2.427       .  S
Cd115       O116   2.464       .  S
Cd115       O119   2.502       .  S
Cd115       O117   2.444       .  S
C118        O122   1.264       .  A
O123        C126   1.265       .  A
O123       Cd128   2.466       .  S
C124        C541   1.513       .  S
C124        O133   1.269       .  A
C124        O129   1.265       .  A
O125        C131   1.265       .  A
O125       Cd128   2.489       .  S
C126        O134   1.262       .  A
C126        C176   1.459       .  S
C127        O132   1.267       .  A
C127        O130   1.264       .  A
Cd128       O135   2.473       .  S
Cd128       O134   2.446       .  S
Cd128       O133   2.453       .  S
Cd128       O129   2.499       .  S
Cd128       O132   2.502       .  S
Cd128       O130   2.456       .  S
C131        O135   1.263       .  A
C131        C144   1.468       .  S
O136        C139   1.265       .  A
O136       Cd141   2.472       .  S
C137        C353   1.507       .  S
C137        O146   1.268       .  A
C137        O142   1.265       .  A
O138        C144   1.266       .  A
O138       Cd141   2.477       .  S
C139        O147   1.262       .  A
C139        C189   1.458       .  S
C140        O145   1.266       .  A
C140        O143   1.264       .  A
Cd141       O148   2.471       .  S
Cd141       O147   2.429       .  S
Cd141       O146   2.439       .  S
Cd141       O142   2.485       .  S
Cd141       O145   2.501       .  S
Cd141       O143   2.453       .  S
C144        O148   1.264       .  A
O149        C152   1.265       .  A
O149       Cd154   2.477   1_545  S
C150        O159   1.262       .  A
C150        O155   1.264       .  A
O151        C157   1.267       .  A
O151       Cd154   2.516       .  S
C152        C505   1.507       .  S
C152        O160   1.269   1_545  A
C153        O158   1.265   1_545  A
C153        O156   1.263       .  A
C153        C166   1.463       .  S
Cd154       O161   2.447       .  S
Cd154       O160   2.427       .  S
Cd154       O159   2.417       .  S
Cd154       O155   2.469       .  S
Cd154       O158   2.466       .  S
Cd154       O156   2.472   1_565  S
C157        O161   1.262       .  A
C157        C179   1.472       .  S
O162        C165   1.263       .  A
O162       Cd167   2.441       .  S
C163        O172   1.263       .  A
C163        O168   1.266       .  A
O164        C170   1.267       .  A
O164       Cd167   2.487       .  S
C165        C389   1.497       .  S
C165        O173   1.267       .  A
C166        O171   1.267       .  A
C166        O169   1.262       .  A
Cd167       O174   2.441       .  S
Cd167       O173   2.446       .  S
Cd167       O172   2.421       .  S
Cd167       O168   2.466       .  S
Cd167       O171   2.476       .  S
Cd167       O169   2.442       .  S
C170        O174   1.265       .  A
C170        C192   1.466       .  S
O175        C178   1.262       .  A
O175       Cd180   2.478       .  S
C176        O185   1.265       .  A
C176        O181   1.264       .  A
O177        C183   1.266       .  A
O177       Cd180   2.493       .  S
C178        C517   1.505       .  S
C178        O186   1.268       .  A
C179        O184   1.266       .  A
C179        O182   1.264       .  A
Cd180       O187   2.444       .  S
Cd180       O186   2.440       .  S
Cd180       O185   2.447       .  S
Cd180       O181   2.452       .  S
Cd180       O184   2.514       .  S
Cd180       O182   2.454       .  S
C183        O187   1.262       .  A
C183        C196   1.464       .  S
O188        C191   1.266       .  A
O188       Cd193   2.466       .  S
C189        O198   1.262       .  A
C189        O194   1.264       .  A
O190        C196   1.264       .  A
O190       Cd193   2.457       .  S
C191        C377   1.502       .  S
C191        O199   1.269       .  A
C192        O197   1.266       .  A
C192        O195   1.262       .  A
Cd193       O200   2.479       .  S
Cd193       O199   2.417       .  S
Cd193       O198   2.431       .  S
Cd193       O194   2.471       .  S
Cd193       O197   2.499       .  S
Cd193       O195   2.444       .  S
C196        O200   1.263       .  A
O201        C204   1.265       .  A
O201       Cd206   2.471       .  S
C202        C341   1.510       .  S
C202        O211   1.270       .  A
C202        O207   1.265       .  A
O203        C209   1.267       .  A
O203       Cd206   2.533       .  S
C204        O212   1.261       .  A
C204        C280   1.453       .  S
C205        O210   1.265       .  A
C205        O208   1.264       .  A
C205        C222   1.469       .  S
Cd206       O213   2.471       .  S
Cd206       O212   2.411       .  S
Cd206       O211   2.425       .  S
Cd206       O207   2.493       .  S
Cd206       O210   2.475       .  S
Cd206       O208   2.484       .  S
C209        O213   1.263       .  A
C209        C235   1.479       .  S
O214        C217   1.266       .  A
O214       Cd219   2.472       .  S
C215        O224   1.263       .  A
C215        O220   1.266       .  A
C215        C293   1.465       .  S
O216        C222   1.267       .  A
O216       Cd219   2.490       .  S
C217        O225   1.267       .  A
C218        O223   1.266       .  A
C218        O221   1.264       .  A
C218        C244   1.469   1_455  S
Cd219       O226   2.458       .  S
Cd219       O225   2.471       .  S
Cd219       O224   2.455       .  S
Cd219       O220   2.484       .  S
Cd219       O223   2.488       .  S
Cd219       O221   2.460       .  S
C222        O226   1.263       .  A
O227        C230   1.265       .  A
O227       Cd232   2.497       .  S
C228        O237   1.262       .  A
C228        O233   1.265       .  A
C228        C254   1.456       .  S
O229        C235   1.267       .  A
O229       Cd232   2.530       .  S
C230        C329   1.512       .  S
C230        O238   1.269       .  A
C231        O236   1.266       .  A
C231        O234   1.263       .  A
C231        C248   1.468       .  S
Cd232       O239   2.474       .  S
Cd232       O238   2.441       .  S
Cd232       O237   2.425       .  S
Cd232       O233   2.478       .  S
Cd232       O236   2.490       .  S
Cd232       O234   2.468       .  S
C235        O239   1.264       .  A
O240        C243   1.265       .  A
O240       Cd245   2.478       .  S
C241        O250   1.268       .  A
C241        O246   1.265       .  A
O242        C248   1.266       .  A
O242       Cd245   2.473       .  S
C243        O251   1.261       .  A
C243        C269   1.457       .  S
C244        O249   1.266       .  A
C244        O247   1.264       .  A
Cd245       O252   2.474       .  S
Cd245       O251   2.421       .  S
Cd245       O250   2.449       .  S
Cd245       O246   2.448       .  S
Cd245       O249   2.487       .  S
Cd245       O247   2.459       .  S
C248        O252   1.264       .  A
O253        C256   1.264       .  A
O253       Cd258   2.444       .  S
C254        O263   1.262       .  A
C254        O259   1.265       .  A
O255        C261   1.267       .  A
O255       Cd258   2.478       .  S
C256        C305   1.497       .  S
C256        O264   1.269       .  A
C257        O262   1.267       .  A
C257        O260   1.262       .  A
C257        C287   1.466       .  S
Cd258       O265   2.466       .  S
Cd258       O264   2.434       .  S
Cd258       O263   2.418       .  S
Cd258       O259   2.469       .  S
Cd258       O262   2.501       .  S
Cd258       O260   2.437       .  S
C261        O265   1.264       .  A
C261        C270   1.467       .  S
O266        C269   1.264       .  A
O266       Cd271   2.477       .  S
C267        O276   1.269       .  A
C267        O272   1.265       .  A
O268        C274   1.265       .  A
O268       Cd271   2.499       .  S
C269        O277   1.262       .  A
C270        O275   1.265       .  A
C270        O273   1.263       .  A
Cd271       O278   2.452       .  S
Cd271       O277   2.430       .  S
Cd271       O276   2.444       .  S
Cd271       O272   2.465       .  S
Cd271       O275   2.481       .  S
Cd271       O273   2.470       .  S
C274        O278   1.263       .  A
C274        C300   1.468   1_655  S
O279        C282   1.265       .  A
O279       Cd284   2.472       .  S
C280        O289   1.261       .  A
C280        O285   1.264       .  A
O281        C287   1.265       .  A
O281       Cd284   2.497       .  S
C282        C317   1.500       .  S
C282        O290   1.268       .  A
C283        O288   1.265       .  A
C283        O286   1.264       .  A
C283        C296   1.467       .  S
Cd284       O291   2.440       .  S
Cd284       O290   2.393       .  S
Cd284       O289   2.411       .  S
Cd284       O285   2.469       .  S
Cd284       O288   2.464       .  S
Cd284       O286   2.484       .  S
C287        O291   1.263       .  A
O292        C295   1.264       .  A
O292       Cd297   2.436       .  S
C293        O302   1.263       .  A
C293        O298   1.264       .  A
O294        C300   1.266       .  A
O294       Cd297   2.503       .  S
C295        O303   1.269       .  A
C296        O301   1.267       .  A
C296        O299   1.263       .  A
Cd297       O304   2.448       .  S
Cd297       O303   2.487       .  S
Cd297       O302   2.462       .  S
Cd297       O298   2.478       .  S
Cd297       O301   2.491       .  S
Cd297       O299   2.451       .  S
C300        O304   1.262       .  A
C305        C306   1.525       .  S
C305        C311   1.529       .  S
C305        C309   1.535       .  S
C306        H313   1.087       .  S
C306        C307   1.359       .  D
C307        C308   1.545       .  S
C307       C1277   1.485       .  S
C308        C312   1.547       .  S
C308        C310   1.552       .  S
C308        H314   1.110       .  S
C309        H315   1.086       .  S
C309        C310   1.373       .  D
C310       C1263   1.507       .  S
C311        H316   1.087       .  S
C311        C312   1.362       .  D
C312       C1291   1.494       .  S
C317        C318   1.546       .  S
C317        C323   1.526       .  S
C317        C321   1.530       .  S
C318        H325   1.083       .  S
C318        C319   1.389       .  D
C319        C320   1.560       .  S
C319       C1235   1.542       .  S
C320        C324   1.553       .  S
C320        C322   1.529       .  S
C320        H326   1.096       .  S
C321        H327   1.086       .  S
C321        C322   1.347       .  D
C322       C1249   1.479       .  S
C323        H328   1.087       .  S
C323        C324   1.356       .  D
C324       C1294   1.490       .  S
C329        C330   1.551       .  S
C329        C335   1.527   1_545  S
C329        C333   1.536       .  S
C330        H337   1.084       .  S
C330        C331   1.389   1_545  D
C331        C332   1.555       .  S
C331       C1221   1.541       .  S
C332        C336   1.541       .  S
C332        C334   1.531       .  S
C332        H338   1.092       .  S
C333        H339   1.086       .  S
C333        C334   1.363   1_545  D
C334       C1207   1.495       .  S
C335        H340   1.086       .  S
C335        C336   1.351       .  D
C336       C1280   1.478       .  S
C341        C342   1.521   1_545  S
C341        C347   1.550       .  S
C341        C345   1.540       .  S
C342        H349   1.087       .  S
C342        C343   1.346       .  D
C343        C344   1.547       .  S
C343       C1252   1.472       .  S
C344        C348   1.550       .  S
C344        C346   1.536       .  S
C344        H350   1.096       .  S
C345        H351   1.085       .  S
C345        C346   1.371   1_545  D
C346       C1193   1.508       .  S
C347        H352   1.084       .  S
C347        C348   1.383   1_545  D
C348       C1224   1.536       .  S
C353        C354   1.545       .  S
C353        C359   1.537       .  S
C353        C357   1.522       .  S
C354        H361   1.083       .  S
C354        C355   1.388       .  D
C355        C356   1.556       .  S
C355       C1238   1.539       .  S
C356        C360   1.535       .  S
C356        C358   1.547       .  S
C356        H362   1.095       .  S
C357        H363   1.087       .  S
C357        C358   1.351       .  D
C358       C1168   1.477       .  S
C359        H364   1.086       .  S
C359        C360   1.362       .  D
C360       C1182   1.502       .  S
C365        C366   1.535       .  S
C365        C371   1.530   1_545  S
C365        C369   1.532       .  S
C366        H373   1.085       .  S
C366        C367   1.367       .  D
C367        C368   1.543   1_545  S
C367       C1151   1.501       .  S
C368        C372   1.546       .  S
C368        C370   1.550       .  S
C368        H374   1.109       .  S
C369        H375   1.086       .  S
C369        C370   1.370   1_545  D
C370       C1196   1.498       .  S
C371        H376   1.087       .  S
C371        C372   1.357       .  D
C372       C1179   1.494       .  S
C377        C378   1.525       .  S
C377        C383   1.538       .  S
C377        C381   1.538       .  S
C378        H385   1.087       .  S
C378        C379   1.353       .  D
C379        C380   1.541       .  S
C379       C1165   1.478       .  S
C380        C384   1.552       .  S
C380        C382   1.545       .  S
C380        H386   1.107       .  S
C381        H387   1.085       .  S
C381        C382   1.370       .  D
C382       C1266   1.504       .  S
C383        H388   1.085       .  S
C383        C384   1.373       .  D
C384       C1137   1.520       .  S
C389        C390   1.539   1_545  S
C389        C395   1.525       .  S
C389        C393   1.526       .  S
C390        H397   1.085       .  S
C390        C391   1.371       .  D
C391        C392   1.548       .  S
C391       C1140   1.518       .  S
C392        C396   1.553   1_565  S
C392        C394   1.547       .  S
C392        H398   1.107       .  S
C393        H399   1.086       .  S
C393        C394   1.361   1_545  D
C394       C1210   1.487   1_565  S
C395        H400   1.086       .  S
C395        C396   1.364       .  D
C396       C1154   1.499       .  S
O401        C404   1.265       .  A
O401       Cd406   2.468       .  S
C402        O411   1.268       .  A
C402        O407   1.264       .  A
O403        C409   1.266       .  A
O403       Cd406   2.502       .  S
C404        O412   1.263       .  A
C404        C469   1.458   1_655  S
C405        O410   1.267       .  A
C405        O408   1.264       .  A
C405        C444   1.473       .  S
Cd406       O413   2.464       .  S
Cd406       O412   2.438       .  S
Cd406       O411   2.463       .  S
Cd406       O407   2.479       .  S
Cd406       O410   2.513       .  S
Cd406       O408   2.460       .  S
C409        O413   1.262       .  A
C409        C418   1.469   1_556  S
O414        C417   1.266       .  A
O414       Cd419   2.455   1_545  S
C415        O424   1.261       .  A
C415        O420   1.266       .  A
C415        C454   1.460   1_655  S
O416        C422   1.267       .  A
O416       Cd419   2.508       .  S
C417        C753   1.505       .  S
C417        O425   1.268   1_545  A
C418        O423   1.265   1_545  A
C418        O421   1.264       .  A
Cd419       O426   2.450       .  S
Cd419       O425   2.470       .  S
Cd419       O424   2.425       .  S
Cd419       O420   2.490       .  S
Cd419       O423   2.468       .  S
Cd419       O421   2.485   1_565  S
C422        O426   1.264       .  A
C422        C431   1.471       .  S
O427        C430   1.264       .  A
O427       Cd432   2.463       .  S
C428        O437   1.262       .  A
C428        O433   1.264       .  A
C428        C482   1.460   1_655  S
O429        C435   1.267       .  A
O429       Cd432   2.492       .  S
C430        C765   1.504       .  S
C430        O438   1.268       .  A
C431        O436   1.267       .  A
C431        O434   1.262       .  A
Cd432       O439   2.481       .  S
Cd432       O438   2.449       .  S
Cd432       O437   2.438       .  S
Cd432       O433   2.479       .  S
Cd432       O436   2.515       .  S
Cd432       O434   2.448       .  S
C435        O439   1.264       .  A
C435        C448   1.473   1_554  S
O440        C443   1.264       .  A
O440       Cd445   2.455       .  S
C441        O450   1.263       .  A
C441        O446   1.265       .  A
C441        C495   1.461   1_655  S
O442        C448   1.267       .  A
O442       Cd445   2.495       .  S
C443        O451   1.268       .  A
C444        O449   1.268       .  A
C444        O447   1.263       .  A
Cd445       O452   2.481       .  S
Cd445       O451   2.476       .  S
Cd445       O450   2.435       .  S
Cd445       O446   2.478       .  S
Cd445       O449   2.515       .  S
Cd445       O447   2.453       .  S
C448        O452   1.264       .  A
O453        C456   1.264       .  A
O453       Cd458   2.449   1_545  S
C454        O463   1.262       .  A
C454        O459   1.264       .  A
O455        C461   1.266   1_565  A
O455       Cd458   2.480       .  S
C456        C777   1.504       .  S
C456        O464   1.269   1_545  A
C457        O462   1.268       .  A
C457        O460   1.263       .  A
C457        C483   1.474       .  S
Cd458       O465   2.486   1_565  S
Cd458       O464   2.468       .  S
Cd458       O463   2.432       .  S
Cd458       O459   2.482       .  S
Cd458       O462   2.519       .  S
Cd458       O460   2.449       .  S
C461        O465   1.263       .  A
C461        C470   1.470   1_554  S
O466        C469   1.266       .  A
O466       Cd471   2.467       .  S
C467        O476   1.269       .  A
C467        O472   1.264       .  A
O468        C474   1.268       .  A
O468       Cd471   2.506       .  S
C469        O477   1.262       .  A
C470        O475   1.267       .  A
C470        O473   1.262       .  A
Cd471       O478   2.465       .  S
Cd471       O477   2.426       .  S
Cd471       O476   2.458       .  S
Cd471       O472   2.470       .  S
Cd471       O475   2.497       .  S
Cd471       O473   2.460       .  S
C474        O478   1.265       .  A
C474        C496   1.475       .  S
O479        C482   1.265       .  A
O479       Cd484   2.486       .  S
C480        C789   1.508       .  S
C480        O489   1.268       .  A
C480        O485   1.265       .  A
O481        C487   1.267       .  A
O481       Cd484   2.482       .  S
C482        O490   1.261       .  A
C483        O488   1.267       .  A
C483        O486   1.263       .  A
Cd484       O491   2.470       .  S
Cd484       O490   2.436       .  S
Cd484       O489   2.472       .  S
Cd484       O485   2.467       .  S
Cd484       O488   2.522       .  S
Cd484       O486   2.458       .  S
C487        O491   1.264       .  A
C487        C500   1.469   1_554  S
O492        C495   1.265       .  A
O492       Cd497   2.483       .  S
C493        O502   1.268       .  A
C493        O498   1.264       .  A
O494        C500   1.266       .  A
O494       Cd497   2.484       .  S
C495        O503   1.262       .  A
C496        O501   1.267       .  A
C496        O499   1.264       .  A
Cd497       O504   2.472       .  S
Cd497       O503   2.439       .  S
Cd497       O502   2.460       .  S
Cd497       O498   2.460       .  S
Cd497       O501   2.511       .  S
Cd497       O499   2.470       .  S
C500        O504   1.263       .  A
C505        C506   1.541       .  S
C505        C511   1.523       .  S
C505        C509   1.545       .  S
C506        H513   1.086       .  S
C506        C507   1.367       .  D
C507        C508   1.541       .  S
C507       C1123   1.509       .  S
C508        C512   1.550       .  S
C508        C510   1.554       .  S
C508        H514   1.099       .  S
C509        H515   1.084       .  S
C509        C510   1.384       .  D
C510       C1095   1.536       .  S
C511        H516   1.087       .  S
C511        C512   1.348       .  D
C512       C1109   1.477       .  S
C517        C518   1.529       .  S
C517        C523   1.538       .  S
C517        C521   1.541       .  S
C518        H525   1.086       .  S
C518        C519   1.353       .  D
C519        C520   1.539       .  S
C519       C1081   1.482       .  S
C520        C524   1.550       .  S
C520        C522   1.544       .  S
C520        H526   1.106       .  S
C521        H527   1.085       .  S
C521        C522   1.374       .  D
C522       C1067   1.505       .  S
C523        H528   1.086       .  S
C523        C524   1.369       .  D
C524       C1126   1.511       .  S
C529        C530   1.528       .  S
C529        C535   1.539       .  S
C529        C533   1.546       .  S
C530        H537   1.086       .  S
C530        C531   1.352       .  D
C531        C532   1.536       .  S
C531       C1112   1.477       .  S
C532        C536   1.547       .  S
C532        C534   1.540       .  S
C532        H538   1.106       .  S
C533        H539   1.085       .  S
C533        C534   1.375       .  D
C534       C1042   1.505       .  S
C535        H540   1.086       .  S
C535        C536   1.370       .  D
C536       C1053   1.511       .  S
C541        C542   1.535       .  S
C541        C547   1.525       .  S
C541        C545   1.548       .  S
C542        H549   1.086       .  S
C542        C543   1.363       .  D
C543        C544   1.545       .  S
C543       C1056   1.511       .  S
C544        C548   1.549       .  S
C544        C546   1.551       .  S
C544        H550   1.097       .  S
C545        H551   1.084       .  S
C545        C546   1.388       .  D
C546       C1025   1.535       .  S
C547        H552   1.086       .  S
C547        C548   1.352       .  D
C548       C1084   1.483       .  S
C553        C554   1.520       .  S
C553        C559   1.542       .  S
C553        C557   1.542       .  S
C553        C617   1.508       .  S
C554        H561   1.087       .  S
C554        C555   1.349       .  D
C555        C556   1.545       .  S
C555       C1011   1.473       .  S
C556        C560   1.537       .  S
C556        C558   1.547       .  S
C556        H562   1.095       .  S
C557        H563   1.085       .  S
C557        C558   1.380       .  D
C558       C1039   1.519       .  S
C559        H564   1.086       .  S
C559        C560   1.371       .  D
C560        C997   1.514       .  S
C565        C566   1.545       .  S
C565        C571   1.534       .  S
C565        C569   1.523       .  S
C565        C628   1.509       .  S
C566        H573   1.085       .  S
C566        C567   1.380       .  D
C567        C568   1.550       .  S
C567       C1098   1.518       .  S
C568        C572   1.550       .  S
C568        C570   1.538       .  S
C568        H574   1.108       .  S
C569        H575   1.087       .  S
C569        C570   1.352       .  D
C570        C986   1.475       .  S
C571        H576   1.086       .  S
C571        C572   1.368       .  D
C572       C1000   1.511       .  S
C577        C578   1.523       .  S
C577        C583   1.537       .  S
C577        C581   1.541       .  S
C577        C680   1.503       .  S
C578        H585   1.087       .  S
C578        C579   1.349       .  D
C579        C580   1.549       .  S
C579        C983   1.478       .  S
C580        C584   1.540       .  S
C580        C582   1.555       .  S
C580        H586   1.099       .  S
C581        H587   1.084       .  S
C581        C582   1.384       .  D
C582       C1070   1.527       .  S
C583        H588   1.086       .  S
C583        C584   1.362       .  D
C584        C969   1.502       .  S
C589        C590   1.541       .  S
C589        C595   1.535       .  S
C589        C593   1.529       .  S
C589        C654   1.507       .  S
C590        H597   1.085       .  S
C590        C591   1.379       .  D
C591        C592   1.554       .  S
C591       C1028   1.516       .  S
C592        C596   1.552       .  S
C592        C594   1.538       .  S
C592        H598   1.110       .  S
C593        H599   1.086       .  S
C593        C594   1.352       .  D
C594       C1014   1.477       .  S
C595        H600   1.086       .  S
C595        C596   1.364       .  D
C596        C972   1.504       .  S
O601        C604   1.265   1_565  A
O601       Cd606   2.446       .  S
C602        O611   1.262       .  A
C602        O607   1.265       .  A
C602        C667   1.471       .  S
O603        C609   1.267       .  A
O603       Cd606   2.476       .  S
C604        C717   1.511       .  S
C604        O612   1.268       .  A
C605        O610   1.266   1_565  A
C605        O608   1.263       .  A
C605        C648   1.474   1_455  S
Cd606       O613   2.471       .  S
Cd606       O612   2.519   1_565  S
Cd606       O611   2.470       .  S
Cd606       O607   2.507       .  S
Cd606       O610   2.518   1_565  S
Cd606       O608   2.465       .  S
C609        O613   1.264       .  A
C609        C622   1.468       .  S
O614        C617   1.263   1_565  A
O614       Cd619   2.483       .  S
C615        O624   1.263       .  A
C615        O620   1.265       .  A
C615        C656   1.456       .  S
O616        C622   1.266       .  A
O616       Cd619   2.491       .  S
C617        O625   1.269       .  A
C618        O623   1.268   1_565  A
C618        O621   1.264       .  A
C618        C631   1.476       .  S
Cd619       O626   2.464       .  S
Cd619       O625   2.436   1_565  S
Cd619       O624   2.429       .  S
Cd619       O620   2.457       .  S
Cd619       O623   2.524   1_565  S
Cd619       O621   2.460       .  S
C622        O626   1.262       .  A
O627        C630   1.265       .  A
O627       Cd632   2.464       .  S
C628        O637   1.269       .  A
C628        O633   1.264   1_545  A
O629        C635   1.266       .  A
O629       Cd632   2.489       .  S
C630        O638   1.262       .  A
C630        C682   1.454       .  S
C631        O636   1.267   1_565  A
C631        O634   1.264       .  A
Cd632       O639   2.480       .  S
Cd632       O638   2.424       .  S
Cd632       O637   2.435   1_565  S
Cd632       O633   2.496       .  S
Cd632       O636   2.524   1_565  S
Cd632       O634   2.461       .  S
C635        O639   1.264       .  A
C635        C644   1.471       .  S
O640        C643   1.265   1_565  A
O640       Cd645   2.481       .  S
C641        O650   1.262       .  A
C641        O646   1.264       .  A
C641        C693   1.463       .  S
O642        C648   1.266   1_545  A
O642       Cd645   2.518   1_545  S
C643        C729   1.510       .  S
C643        O651   1.268       .  A
C644        O649   1.266       .  A
C644        O647   1.264       .  A
Cd645       O652   2.467       .  S
Cd645       O651   2.462   1_565  S
Cd645       O650   2.453       .  S
Cd645       O646   2.485       .  S
Cd645       O649   2.485       .  S
Cd645       O647   2.478       .  S
C648        O652   1.263       .  A
O653        C656   1.265       .  A
O653       Cd658   2.461       .  S
C654        O663   1.268       .  A
C654        O659   1.264       .  A
O655        C661   1.265       .  A
O655       Cd658   2.492       .  S
C656        O664   1.263       .  A
C657        O662   1.267       .  A
C657        O660   1.265       .  A
C657        C687   1.472       .  S
Cd658       O665   2.460       .  S
Cd658       O664   2.428       .  S
Cd658       O663   2.429       .  S
Cd658       O659   2.493       .  S
Cd658       O662   2.506       .  S
Cd658       O660   2.455       .  S
C661        O665   1.262       .  A
C661        C670   1.467       .  S
O666        C669   1.265       .  A
O666       Cd671   2.454       .  S
C667        O676   1.262       .  A
C667        O672   1.265       .  A
O668        C674   1.266       .  A
O668       Cd671   2.524       .  S
C669        C705   1.510       .  S
C669        O677   1.268       .  A
C670        O675   1.266       .  A
C670        O673   1.265       .  A
Cd671       O678   2.458       .  S
Cd671       O677   2.507       .  S
Cd671       O676   2.470       .  S
Cd671       O672   2.509       .  S
Cd671       O675   2.467       .  S
Cd671       O673   2.479       .  S
C674        O678   1.263       .  A
C674        C696   1.474   1_455  S
O679        C682   1.265       .  A
O679       Cd684   2.455       .  S
C680        O689   1.268       .  A
C680        O685   1.264       .  A
O681        C687   1.268       .  A
O681       Cd684   2.516       .  S
C682        O690   1.263       .  A
C683        O688   1.267       .  A
C683        O686   1.263       .  A
C683        C700   1.471       .  S
Cd684       O691   2.452       .  S
Cd684       O690   2.423       .  S
Cd684       O689   2.419       .  S
Cd684       O685   2.476       .  S
Cd684       O688   2.495       .  S
Cd684       O686   2.468       .  S
C687        O691   1.262       .  A
O692        C695   1.264       .  A
O692       Cd697   2.467       .  S
C693        O702   1.262       .  A
C693        O698   1.265       .  A
O694        C700   1.267       .  A
O694       Cd697   2.483       .  S
C695        C741   1.508       .  S
C695        O703   1.269       .  A
C696        O701   1.267       .  A
C696        O699   1.262       .  A
Cd697       O704   2.476       .  S
Cd697       O703   2.465       .  S
Cd697       O702   2.447       .  S
Cd697       O698   2.479       .  S
Cd697       O701   2.529       .  S
Cd697       O699   2.453       .  S
C700        O704   1.264       .  A
C705        C706   1.536       .  S
C705        C711   1.544       .  S
C705        C709   1.527       .  S
C706        H713   1.086       .  S
C706        C707   1.362       .  D
C707        C708   1.537       .  S
C707        C955   1.501       .  S
C708        C712   1.555       .  S
C708        C710   1.554       .  S
C708        H714   1.099       .  S
C709        H715   1.086       .  S
C709        C710   1.360       .  D
C710        C927   1.490       .  S
C711        H716   1.084       .  S
C711        C712   1.382       .  D
C712        C944   1.534       .  S
C717        C718   1.545       .  S
C717        C723   1.536       .  S
C717        C721   1.525       .  S
C718        H725   1.084       .  S
C718        C719   1.385       .  D
C719        C720   1.554       .  S
C719        C941   1.534       .  S
C720        C724   1.539       .  S
C720        C722   1.554       .  S
C720        H726   1.100       .  S
C721        H727   1.086       .  S
C721        C722   1.358       .  D
C722        C899   1.488       .  S
C723        H728   1.086       .  S
C723        C724   1.362       .  D
C724        C916   1.503       .  S
C729        C730   1.536       .  S
C729        C735   1.533       .  S
C729        C733   1.534       .  S
C730        H737   1.086       .  S
C730        C731   1.366       .  D
C731        C732   1.545       .  S
C731        C871   1.495       .  S
C732        C736   1.549       .  S
C732        C734   1.549       .  S
C732        H738   1.110       .  S
C733        H739   1.085       .  S
C733        C734   1.367       .  D
C734        C888   1.508       .  S
C735        H740   1.086       .  S
C735        C736   1.368       .  D
C736        C913   1.499       .  S
C741        C742   1.531       .  S
C741        C747   1.530       .  S
C741        C745   1.541       .  S
C742        H749   1.086       .  S
C742        C743   1.365       .  D
C743        C744   1.550       .  S
C743        C885   1.504       .  S
C744        C748   1.547       .  S
C744        C746   1.549       .  S
C744        H750   1.110       .  S
C745        H751   1.086       .  S
C745        C746   1.372       .  D
C746        C857   1.511       .  S
C747        H752   1.086       .  S
C747        C748   1.362       .  D
C748        C958   1.493       .  S
C753        C754   1.531       .  S
C753        C759   1.534       .  S
C753        C757   1.535       .  S
C754        H761   1.086       .  S
C754        C755   1.367       .  D
C755        C756   1.554       .  S
C755        C874   1.499       .  S
C756        C760   1.545       .  S
C756        C758   1.555       .  S
C756        H762   1.108       .  S
C757        H763   1.085       .  S
C757        C758   1.371       .  D
C758        C829   1.517       .  S
C759        H764   1.087       .  S
C759        C760   1.360       .  D
C760        C846   1.499       .  S
C765        C766   1.532       .  S
C765        C771   1.533       .  S
C765        C769   1.537       .  S
C766        H773   1.086       .  S
C766        C767   1.362       .  D
C767        C768   1.548       .  S
C767        C818   1.504       .  S
C768        C772   1.548       .  S
C768        C770   1.558       .  S
C768        H774   1.108       .  S
C769        H775   1.085       .  S
C769        C770   1.374       .  D
C770        C860   1.515       .  S
C771        H776   1.087       .  S
C771        C772   1.361       .  D
C772        C843   1.499       .  S
C777        C778   1.531       .  S
C777        C783   1.537       .  S
C777        C781   1.530       .  S
C778        H785   1.085       .  S
C778        C779   1.369       .  D
C779        C780   1.555       .  S
C779        C832   1.513       .  S
C780        C784   1.543       .  S
C780        C782   1.545       .  S
C780        H786   1.106       .  S
C781        H787   1.086       .  S
C781        C782   1.365       .  D
C782        C902   1.491       .  S
C783        H788   1.086       .  S
C783        C784   1.367       .  D
C784        C804   1.508       .  S
C789        C790   1.531       .  S
C789        C795   1.540       .  S
C789        C793   1.531       .  S
C790        H797   1.086       .  S
C790        C791   1.364       .  D
C791        C792   1.542       .  S
C791        C930   1.490       .  S
C792        C796   1.544       .  S
C792        C794   1.552       .  S
C792        H798   1.106       .  S
C793        H799   1.086       .  S
C793        C794   1.367       .  D
C794        C815   1.504       .  S
C795        H800   1.086       .  S
C795        C796   1.372       .  D
C796        C801   1.513       .  S
C801        C802   1.421       .  A
C801        C806   1.418       .  A
C802        C803   1.418       .  A
C802        C807   1.452       .  S
C803        C804   1.419       .  A
C803        C810   1.452       .  S
C804        C805   1.412       .  A
C805        C806   1.412       .  A
C805        C808   1.448       .  S
C806        C809   1.448       .  S
C807        N814   1.157       .  T
C808        N813   1.155       .  T
C809        N811   1.156       .  T
C810        N812   1.157       .  T
C815        C816   1.414       .  A
C815        C820   1.421       .  A
C816        C817   1.412       .  A
C816        C821   1.447       .  S
C817        C818   1.413       .  A
C817        C824   1.447       .  S
C818        C819   1.420       .  A
C819        C820   1.412       .  A
C819        C822   1.454       .  S
C820        C823   1.454       .  S
C821        N828   1.156       .  T
C822        N827   1.158       .  T
C823        N825   1.158       .  T
C824        N826   1.155       .  T
C829        C830   1.422       .  A
C829        C834   1.419       .  A
C830        C831   1.413       .  A
C830        C835   1.454       .  S
C831        C832   1.420       .  A
C831        C838   1.454       .  S
C832        C833   1.416       .  A
C833        C834   1.419       .  A
C833        C836   1.448       .  S
C834        C837   1.448       .  S
C835        N842   1.158       .  T
C836        N841   1.156       .  T
C837        N839   1.157       .  T
C838        N840   1.158       .  T
C843        C844   1.408       .  A
C843        C848   1.418       .  A
C844        C845   1.410       .  A
C844        C849   1.445       .  S
C845        C846   1.408       .  A
C845        C852   1.445       .  S
C846        C847   1.416       .  A
C847        C848   1.417       .  A
C847        C850   1.452       .  S
C848        C851   1.451       .  S
C849        N856   1.155       .  T
C850        N855   1.158       .  T
C851        N853   1.157       .  T
C852        N854   1.155       .  T
C857        C858   1.411       .  A
C857        C862   1.417       .  A
C858        C859   1.413       .  A
C858        C863   1.445       .  S
C859        C860   1.414       .  A
C859        C866   1.446       .  S
C860        C861   1.423       .  A
C861        C862   1.422       .  A
C861        C864   1.451       .  S
C862        C865   1.452       .  S
C863        N870   1.154       .  T
C864        N869   1.157       .  T
C865        N867   1.158       .  T
C866        N868   1.155       .  T
C871        C872   1.411       .  A
C871        C876   1.407       .  A
C872        C873   1.415       .  A
C872        C877   1.451   1_545  S
C873        C874   1.418       .  A
C873        C880   1.450   1_545  S
C874        C875   1.410       .  A
C875        C876   1.411       .  A
C875        C878   1.444       .  S
C876        C879   1.446       .  S
C877        N884   1.157       .  T
C878        N883   1.155       .  T
C879        N881   1.155       .  T
C880        N882   1.157       .  T
C885        C886   1.419       .  A
C885        C890   1.414       .  A
C886        C887   1.410       .  A
C886        C891   1.454       .  S
C887        C888   1.421       .  A
C887        C894   1.454       .  S
C888        C889   1.417       .  A
C889        C890   1.416       .  A
C889        C892   1.449       .  S
C890        C893   1.449       .  S
C891        N898   1.157       .  T
C892        N897   1.157       .  T
C893        N895   1.157       .  T
C894        N896   1.158       .  T
C899        C900   1.409       .  A
C899        C904   1.407       .  A
C900        C901   1.411       .  A
C900        C905   1.450   1_545  S
C901        C902   1.416       .  A
C901        C908   1.450   1_545  S
C902        C903   1.412       .  A
C903        C904   1.410       .  A
C903        C906   1.447       .  S
C904        C907   1.451       .  S
C905        N912   1.157       .  T
C906        N911   1.156       .  T
C907        N909   1.158       .  T
C908        N910   1.157       .  T
C913        C914   1.415       .  A
C913        C918   1.410       .  A
C914        C915   1.415       .  A
C914        C919   1.452       .  S
C915        C916   1.416       .  A
C915        C922   1.449       .  S
C916        C917   1.412       .  A
C917        C918   1.414       .  A
C917        C920   1.445       .  S
C918        C921   1.446       .  S
C919        N926   1.157       .  T
C920        N925   1.155       .  T
C921        N923   1.155       .  T
C922        N924   1.157       .  T
C927        C928   1.409       .  A
C927        C932   1.409       .  A
C928        C929   1.412       .  A
C928        C933   1.450       .  S
C929        C930   1.415       .  A
C929        C936   1.450       .  S
C930        C931   1.410       .  A
C931        C932   1.411       .  A
C931        C934   1.447       .  S
C932        C935   1.450       .  S
C933        N940   1.157       .  T
C934        N939   1.156       .  T
C935        N937   1.157       .  T
C936        N938   1.157       .  T
C941        C942   1.426       .  A
C941        C946   1.421       .  A
C942        C943   1.423       .  A
C942        C947   1.450       .  S
C943        C944   1.425       .  A
C943        C950   1.451       .  S
C944        C945   1.424       .  A
C945        C946   1.418       .  A
C945        C948   1.452       .  S
C946        C949   1.452       .  S
C947        N954   1.158       .  T
C948        N953   1.157       .  T
C949        N951   1.157       .  T
C950        N952   1.158       .  T
C955        C956   1.417       .  A
C955        C960   1.413       .  A
C956        C957   1.414       .  A
C956        C961   1.449       .  S
C957        C958   1.414       .  A
C957        C964   1.451       .  S
C958        C959   1.406       .  A
C959        C960   1.411       .  A
C959        C962   1.447       .  S
C960        C963   1.444       .  S
C961        N968   1.157       .  T
C962        N967   1.155       .  T
C963        N965   1.155       .  T
C964        N966   1.157       .  T
C969        C970   1.410       .  A
C969        C974   1.414       .  A
C970        C971   1.415   1_655  A
C970        C975   1.447       .  S
C971        C972   1.412       .  A
C971        C978   1.444       .  S
C972        C973   1.417       .  A
C973        C974   1.417   1_455  A
C973        C976   1.451       .  S
C974        C977   1.449       .  S
C975        N982   1.155       .  T
C976        N981   1.157       .  T
C977        N979   1.157       .  T
C978        N980   1.155       .  T
C983        C984   1.407       .  A
C983        C988   1.408       .  A
C984        C985   1.405       .  A
C984        C989   1.449       .  S
C985        C986   1.407       .  A
C985        C992   1.449       .  S
C986        C987   1.416       .  A
C987        C988   1.403       .  A
C987        C990   1.452       .  S
C988        C991   1.451       .  S
C989        N996   1.157       .  T
C990        N995   1.157       .  T
C991        N993   1.158       .  T
C992        N994   1.157       .  T
C997        C998   1.420       .  A
C997       C1002   1.417       .  A
C998        C999   1.417   1_455  A
C998       C1003   1.449       .  S
C999       C1000   1.415       .  A
C999       C1006   1.450       .  S
C1000      C1001   1.420       .  A
C1001      C1002   1.416   1_655  A
C1001      C1004   1.452   1_545  S
C1002      C1005   1.451   1_545  S
C1003      N1010   1.156       .  T
C1004      N1009   1.157       .  T
C1005      N1007   1.157       .  T
C1006      N1008   1.157       .  T
C1011      C1012   1.409       .  A
C1011      C1016   1.407       .  A
C1012      C1013   1.402       .  A
C1012      C1017   1.451       .  S
C1013      C1014   1.411       .  A
C1013      C1020   1.451       .  S
C1014      C1015   1.411       .  A
C1015      C1016   1.407       .  A
C1015      C1018   1.446       .  S
C1016      C1019   1.451       .  S
C1017      N1024   1.157       .  T
C1018      N1023   1.156       .  T
C1019      N1021   1.158       .  T
C1020      N1022   1.157       .  T
C1025      C1026   1.423       .  A
C1025      C1030   1.429       .  A
C1026      C1027   1.422       .  A
C1026      C1031   1.452       .  S
C1027      C1028   1.420       .  A
C1027      C1034   1.452       .  S
C1028      C1029   1.411       .  A
C1029      C1030   1.414       .  A
C1029      C1032   1.452       .  S
C1030      C1033   1.449       .  S
C1031      N1038   1.157       .  T
C1032      N1037   1.157       .  T
C1033      N1035   1.158       .  T
C1034      N1036   1.158       .  T
C1039      C1040   1.420       .  A
C1039      C1044   1.423       .  A
C1040      C1041   1.404       .  A
C1040      C1045   1.450       .  S
C1041      C1042   1.411       .  A
C1041      C1048   1.450       .  S
C1042      C1043   1.416       .  A
C1043      C1044   1.422       .  A
C1043      C1046   1.450   1_545  S
C1044      C1047   1.451   1_545  S
C1045      N1052   1.158       .  T
C1046      N1051   1.157       .  T
C1047      N1049   1.157       .  T
C1048      N1050   1.156       .  T
C1053      C1054   1.413       .  A
C1053      C1058   1.423       .  A
C1054      C1055   1.406       .  A
C1054      C1059   1.447       .  S
C1055      C1056   1.409       .  A
C1055      C1062   1.440       .  S
C1056      C1057   1.419       .  A
C1057      C1058   1.421       .  A
C1057      C1060   1.451       .  S
C1058      C1061   1.451       .  S
C1059      N1066   1.156       .  T
C1060      N1065   1.157       .  T
C1061      N1063   1.157       .  T
C1062      N1064   1.153       .  T
C1067      C1068   1.408       .  A
C1067      C1072   1.415       .  A
C1068      C1069   1.406       .  A
C1068      C1073   1.452       .  S
C1069      C1070   1.424       .  A
C1069      C1076   1.448       .  S
C1070      C1071   1.427       .  A
C1071      C1072   1.421       .  A
C1071      C1074   1.451       .  S
C1072      C1075   1.451       .  S
C1073      N1080   1.157       .  T
C1074      N1079   1.157       .  T
C1075      N1077   1.157       .  T
C1076      N1078   1.158       .  T
C1081      C1082   1.410       .  A
C1081      C1086   1.415       .  A
C1082      C1083   1.409   1_655  A
C1082      C1087   1.449       .  S
C1083      C1084   1.410       .  A
C1083      C1090   1.451       .  S
C1084      C1085   1.408       .  A
C1085      C1086   1.407   1_455  A
C1085      C1088   1.452       .  S
C1086      C1089   1.451       .  S
C1087      N1094   1.157       .  T
C1088      N1093   1.157       .  T
C1089      N1091   1.157       .  T
C1090      N1092   1.158       .  T
C1095      C1096   1.427       .  A
C1095      C1100   1.428       .  A
C1096      C1097   1.423       .  A
C1096      C1101   1.452       .  S
C1097      C1098   1.417       .  A
C1097      C1104   1.452       .  S
C1098      C1099   1.413       .  A
C1099      C1100   1.416       .  A
C1099      C1102   1.452       .  S
C1100      C1103   1.449       .  S
C1101      N1108   1.158       .  T
C1102      N1107   1.157       .  T
C1103      N1105   1.158       .  T
C1104      N1106   1.157       .  T
C1109      C1110   1.405       .  A
C1109      C1114   1.408       .  A
C1110      C1111   1.404   1_655  A
C1110      C1115   1.451       .  S
C1111      C1112   1.408       .  A
C1111      C1118   1.447       .  S
C1112      C1113   1.416       .  A
C1113      C1114   1.407   1_455  A
C1113      C1116   1.452       .  S
C1114      C1117   1.452       .  S
C1115      N1122   1.157   1_545  T
C1116      N1121   1.157       .  T
C1117      N1119   1.157       .  T
C1118      N1120   1.156       .  T
C1123      C1124   1.412       .  A
C1123      C1128   1.418       .  A
C1124      C1125   1.407       .  A
C1124      C1129   1.443       .  S
C1125      C1126   1.410       .  A
C1125      C1132   1.444       .  S
C1126      C1127   1.421       .  A
C1127      C1128   1.421       .  A
C1127      C1130   1.450       .  S
C1128      C1131   1.450       .  S
C1129      N1136   1.154       .  T
C1130      N1135   1.157       .  T
C1131      N1133   1.157       .  T
C1132      N1134   1.156       .  T
C1137      C1138   1.422       .  A
C1137      C1142   1.419       .  A
C1138      C1139   1.418       .  A
C1138      C1143   1.452       .  S
C1139      C1140   1.421       .  A
C1139      C1146   1.452       .  S
C1140      C1141   1.417       .  A
C1141      C1142   1.418       .  A
C1141      C1144   1.449       .  S
C1142      C1145   1.448       .  S
C1143      N1150   1.157       .  T
C1144      N1149   1.156       .  T
C1145      N1147   1.156       .  T
C1146      N1148   1.158       .  T
C1151      C1152   1.417       .  A
C1151      C1156   1.418       .  A
C1152      C1153   1.409   1_455  A
C1152      C1157   1.455       .  S
C1153      C1154   1.420       .  A
C1153      C1160   1.454       .  S
C1154      C1155   1.411       .  A
C1155      C1156   1.414   1_655  A
C1155      C1158   1.451       .  S
C1156      C1159   1.448       .  S
C1157      N1164   1.158       .  T
C1158      N1163   1.157       .  T
C1159      N1161   1.156       .  T
C1160      N1162   1.158       .  T
C1165      C1166   1.407       .  A
C1165      C1170   1.415       .  A
C1166      C1167   1.406   1_655  A
C1166      C1171   1.445       .  S
C1167      C1168   1.409       .  A
C1167      C1174   1.451       .  S
C1168      C1169   1.408       .  A
C1169      C1170   1.404   1_455  A
C1169      C1172   1.452       .  S
C1170      C1173   1.452       .  S
C1171      N1178   1.155       .  T
C1172      N1177   1.157       .  T
C1173      N1175   1.157       .  T
C1174      N1176   1.157       .  T
C1179      C1180   1.404       .  A
C1179      C1184   1.416       .  A
C1180      C1181   1.409       .  A
C1180      C1185   1.448       .  S
C1181      C1182   1.414       .  A
C1181      C1188   1.444       .  S
C1182      C1183   1.417       .  A
C1183      C1184   1.416       .  A
C1183      C1186   1.450       .  S
C1184      C1187   1.451       .  S
C1185      N1192   1.155       .  T
C1186      N1191   1.157       .  T
C1187      N1189   1.157       .  T
C1188      N1190   1.154       .  T
C1193      C1194   1.420       .  A
C1193      C1198   1.418   1_565  A
C1194      C1195   1.409       .  A
C1194      C1199   1.448       .  S
C1195      C1196   1.408       .  A
C1195      C1202   1.451       .  S
C1196      C1197   1.419   1_565  A
C1197      C1198   1.417       .  A
C1197      C1200   1.452       .  S
C1198      C1201   1.452       .  S
C1199      N1206   1.156       .  T
C1200      N1205   1.157       .  T
C1201      N1203   1.158       .  T
C1202      N1204   1.156       .  T
C1207      C1208   1.414   1_565  A
C1207      C1212   1.416       .  A
C1208      C1209   1.412       .  A
C1208      C1213   1.450       .  S
C1209      C1210   1.412       .  A
C1209      C1216   1.450       .  S
C1210      C1211   1.404   1_545  A
C1211      C1212   1.410       .  A
C1211      C1214   1.449       .  S
C1212      C1215   1.445       .  S
C1213      N1220   1.157       .  T
C1214      N1219   1.156       .  T
C1215      N1217   1.155       .  T
C1216      N1218   1.157       .  T
C1221      C1222   1.423   1_565  A
C1221      C1226   1.425       .  A
C1222      C1223   1.426   1_655  A
C1222      C1227   1.452       .  S
C1223      C1224   1.425   1_545  A
C1223      C1230   1.451       .  S
C1224      C1225   1.425       .  A
C1225      C1226   1.418   1_455  A
C1225      C1228   1.451       .  S
C1226      C1229   1.451       .  S
C1227      N1234   1.158       .  T
C1228      N1233   1.158       .  T
C1229      N1231   1.159       .  T
C1230      N1232   1.158       .  T
C1235      C1236   1.428       .  A
C1235      C1240   1.428       .  A
C1236      C1237   1.421       .  A
C1236      C1241   1.451       .  S
C1237      C1238   1.426       .  A
C1237      C1244   1.452       .  S
C1238      C1239   1.422       .  A
C1239      C1240   1.424       .  A
C1239      C1242   1.453       .  S
C1240      C1243   1.452       .  S
C1241      N1248   1.158       .  T
C1242      N1247   1.158       .  T
C1243      N1245   1.158       .  T
C1244      N1246   1.158       .  T
C1249      C1250   1.409       .  A
C1249      C1254   1.415       .  A
C1250      C1251   1.403       .  A
C1250      C1255   1.445       .  S
C1251      C1252   1.404       .  A
C1251      C1258   1.453       .  S
C1252      C1253   1.409       .  A
C1253      C1254   1.407       .  A
C1253      C1256   1.453       .  S
C1254      C1257   1.450       .  S
C1255      N1262   1.155       .  T
C1256      N1261   1.157       .  T
C1257      N1259   1.157       .  T
C1258      N1260   1.157       .  T
C1263      C1264   1.415       .  A
C1263      C1268   1.421       .  A
C1264      C1265   1.410       .  A
C1264      C1269   1.448       .  S
C1265      C1266   1.410       .  A
C1265      C1272   1.448       .  S
C1266      C1267   1.416       .  A
C1267      C1268   1.418       .  A
C1267      C1270   1.451       .  S
C1268      C1271   1.452       .  S
C1269      N1276   1.156       .  T
C1270      N1275   1.157       .  T
C1271      N1273   1.157       .  T
C1272      N1274   1.155       .  T
C1277      C1278   1.418       .  A
C1277      C1282   1.410       .  A
C1278      C1279   1.405       .  A
C1278      C1283   1.452       .  S
C1279      C1280   1.406       .  A
C1279      C1286   1.452       .  S
C1280      C1281   1.407       .  A
C1281      C1282   1.407       .  A
C1281      C1284   1.450       .  S
C1282      C1285   1.446       .  S
C1283      N1290   1.157       .  T
C1284      N1289   1.157       .  T
C1285      N1287   1.156       .  T
C1286      N1288   1.157       .  T
C1291      C1292   1.410       .  A
C1291      C1296   1.419       .  A
C1292      C1293   1.408   1_655  A
C1292      C1297   1.443       .  S
C1293      C1294   1.405       .  A
C1293      C1300   1.451       .  S
C1294      C1295   1.410       .  A
C1295      C1296   1.414   1_455  A
C1295      C1298   1.450       .  S
C1296      C1299   1.451       .  S
C1297      N1304   1.155       .  T
C1298      N1303   1.157       .  T
C1299      N1301   1.157       .  T
C1300      N1302   1.157       .  T
C1305      C1306   1.409       .  A
C1305      C1310   1.415       .  A
C1306      C1307   1.410       .  A
C1306      C1311   1.449       .  S
C1307      C1308   1.416       .  A
C1307      C1314   1.447       .  S
C1308      C1309   1.421       .  A
C1309      C1310   1.409       .  A
C1309      C1312   1.454       .  S
C1310      C1313   1.453       .  S
C1311      N1318   1.156       .  T
C1312      N1317   1.158       .  T
C1313      N1315   1.157       .  T
C1314      N1316   1.156   1_545  T
C1319      C1320   1.419       .  A
C1319      C1324   1.418       .  A
C1320      C1321   1.417       .  A
C1320      C1325   1.452       .  S
C1321      C1322   1.420       .  A
C1321      C1328   1.451       .  S
C1322      C1323   1.415       .  A
C1323      C1324   1.415       .  A
C1323      C1326   1.449       .  S
C1324      C1327   1.446       .  S
C1325      N1332   1.157       .  T
C1326      N1331   1.156       .  T
C1327      N1329   1.156       .  T
C1328      N1330   1.157       .  T
C1333      C1334   1.418       .  A
C1333      C1338   1.408       .  A
C1334      C1335   1.417       .  A
C1334      C1339   1.451       .  S
C1335      C1336   1.414       .  A
C1335      C1342   1.451       .  S
C1336      C1337   1.411       .  A
C1337      C1338   1.412       .  A
C1337      C1340   1.444       .  S
C1338      C1341   1.445       .  S
C1339      N1346   1.157       .  T
C1340      N1345   1.155       .  T
C1341      N1343   1.155       .  T
C1342      N1344   1.157       .  T
C1347      C1348   1.415       .  A
C1347      C1352   1.416       .  A
C1348      C1349   1.410       .  A
C1348      C1353   1.453       .  S
C1349      C1350   1.419       .  A
C1349      C1356   1.453       .  S
C1350      C1351   1.412       .  A
C1351      C1352   1.414       .  A
C1351      C1354   1.448       .  S
C1352      C1355   1.446       .  S
C1353      N1360   1.157       .  T
C1354      N1359   1.156       .  T
C1355      N1357   1.155       .  T
C1356      N1358   1.157       .  T
C1361      C1362   1.421   1_545  A
C1361      C1366   1.429       .  A
C1362      C1363   1.401       .  A
C1362      C1367   1.448       .  S
C1363      C1364   1.408   1_565  A
C1363      C1370   1.450       .  S
C1364      C1365   1.419       .  A
C1365      C1366   1.421       .  A
C1365      C1368   1.451       .  S
C1366      C1369   1.453       .  S
C1367      N1374   1.158       .  T
C1368      N1373   1.158       .  T
C1369      N1371   1.158       .  T
C1370      N1372   1.156       .  T
C1375      C1376   1.418       .  A
C1375      C1380   1.409   1_545  A
C1376      C1377   1.419       .  A
C1376      C1381   1.450       .  S
C1377      C1378   1.418       .  A
C1377      C1384   1.451       .  S
C1378      C1379   1.408   1_545  A
C1379      C1380   1.411       .  A
C1379      C1382   1.443       .  S
C1380      C1383   1.444       .  S
C1381      N1388   1.157       .  T
C1382      N1387   1.154       .  T
C1383      N1385   1.154       .  T
C1384      N1386   1.157       .  T
C1389      C1390   1.406       .  A
C1389      C1394   1.418   1_545  A
C1390      C1391   1.408       .  A
C1390      C1395   1.447       .  S
C1391      C1392   1.411       .  A
C1391      C1398   1.445       .  S
C1392      C1393   1.410   1_545  A
C1393      C1394   1.414       .  A
C1393      C1396   1.449       .  S
C1394      C1397   1.451       .  S
C1395      N1402   1.155       .  T
C1396      N1401   1.157       .  T
C1397      N1399   1.157       .  T
C1398      N1400   1.155       .  T
C1403      C1404   1.409       .  A
C1403      C1408   1.407       .  A
C1404      C1405   1.413       .  A
C1404      C1409   1.450       .  S
C1405      C1406   1.411       .  A
C1405      C1412   1.448       .  S
C1406      C1407   1.415       .  A
C1407      C1408   1.411       .  A
C1407      C1410   1.450       .  S
C1408      C1411   1.449       .  S
C1409      N1416   1.157       .  T
C1410      N1415   1.157       .  T
C1411      N1413   1.157       .  T
C1412      N1414   1.157       .  T
C1417      C1418   1.415       .  A
C1417      C1422   1.422       .  A
C1418      C1419   1.405       .  A
C1418      C1423   1.445       .  S
C1419      C1420   1.405       .  A
C1419      C1426   1.448       .  S
C1420      C1421   1.411       .  A
C1421      C1422   1.417       .  A
C1421      C1424   1.449       .  S
C1422      C1425   1.448       .  S
C1423      N1430   1.158       .  T
C1424      N1429   1.157       .  T
C1425      N1427   1.156       .  T
C1426      N1428   1.157       .  T
C1431      C1432   1.418       .  A
C1431      C1436   1.417       .  A
C1432      C1433   1.418       .  A
C1432      C1437   1.452       .  S
C1433      C1434   1.422       .  A
C1433      C1440   1.451       .  S
C1434      C1435   1.414       .  A
C1435      C1436   1.413       .  A
C1435      C1438   1.449       .  S
C1436      C1439   1.445       .  S
C1437      N1444   1.157       .  T
C1438      N1443   1.156       .  T
C1439      N1441   1.155       .  T
C1440      N1442   1.157       .  T
C1445      C1446   1.418       .  A
C1445      C1450   1.411       .  A
C1446      C1447   1.410       .  A
C1446      C1451   1.454       .  S
C1447      C1448   1.422       .  A
C1447      C1454   1.454       .  S
C1448      C1449   1.419       .  A
C1449      C1450   1.415       .  A
C1449      C1452   1.447       .  S
C1450      C1453   1.451       .  S
C1451      N1458   1.158       .  T
C1452      N1457   1.157       .  T
C1453      N1455   1.157       .  T
C1454      N1456   1.158       .  T
C1459      C1460   1.409       .  A
C1459      C1464   1.406       .  A
C1460      C1461   1.413       .  A
C1460      C1465   1.452       .  S
C1461      C1462   1.421       .  A
C1461      C1468   1.448       .  S
C1462      C1463   1.414       .  A
C1463      C1464   1.413       .  A
C1463      C1466   1.443       .  S
C1464      C1467   1.448       .  S
C1465      N1472   1.157       .  T
C1466      N1471   1.155       .  T
C1467      N1469   1.156       .  T
C1468      N1470   1.157       .  T
