geometry optimzed in LAMMPS
_audit_creation_date              2020-11-30 
_audit_creation_method            'lammps2cif' 
_symmetry_space_group_name_H-M    'P1' 
_symmetry_Int_Tables_number       1 
_symmetry_cell_setting            triclinic 
loop_ 
_symmetry_equiv_pos_as_xyz 
  x,y,z 
_cell_length_a                    53.22593264 
_cell_length_b                    53.208316874573995 
_cell_length_c                    37.63594266926712 
_cell_angle_alpha                 89.95190908552415 
_cell_angle_beta                  90.03813950897573 
_cell_angle_gamma                 89.9354813149193 
loop_ 
_atom_site_label 
_atom_site_type_symbol 
_atom_site_fract_x 
_atom_site_fract_y 
_atom_site_fract_z 
_atom_site_charge 
N1          N  0.48112589  0.21222663  0.28783141    -0.27200
N2          N  0.47500683  0.23395201  0.30232053    -0.35000
C3          C  0.46202982  0.22989889  0.33229188     0.01200
C4          C  0.45931631  0.20419888  0.33705599     0.07200
C5          C  0.47193431  0.19361537  0.30829051    -0.05900
H6          H  0.45533732  0.24488134  0.34912241     0.07900
H7          H  0.47388902  0.17385762  0.30217223     0.09100
Cu8        Cu  0.48327222  0.26836992  0.28043157     0.44200
Cu9        Cu  0.50168657  0.20980012  0.24083244     0.42000
Cu10       Cu  0.52272878  0.27025303  0.20367288     0.43900
N11         N  0.49304510  0.30121123  0.25520799    -0.34600
N12         N  0.50782343  0.30219285  0.22709551    -0.28800
C13         C  0.51091175  0.32637886  0.21764385    -0.04900
C14         C  0.49752826  0.34127993  0.24120586     0.07300
C15         C  0.48628930  0.32459252  0.26447023     0.01100
H16         H  0.52245560  0.33265079  0.19572095     0.08800
H17         H  0.47400022  0.32895555  0.28648929     0.07800
N18         N  0.53255629  0.23536385  0.18345511    -0.36000
N19         N  0.52425141  0.21362569  0.19588296    -0.28200
C20         C  0.53344150  0.19497033  0.17554123    -0.03400
C21         C  0.54852377  0.20542792  0.14947574     0.05200
C22         C  0.54747658  0.23106552  0.15528221     0.03300
H23         H  0.52975297  0.17520319  0.17978369     0.08400
H24         H  0.55647124  0.24561449  0.13975514     0.07200
O25         O  0.53408798  0.49963527  0.21856032    -0.72800
O26         O  0.45854159  0.50134928  0.21912483    -0.73800
O27         O  0.49711570  0.53825885  0.22177745    -0.62400
O28         O  0.49552966  0.46306835  0.21571588    -0.70800
O29         O  0.49544314  0.46096209  0.27446655    -0.70400
O30         O  0.49731456  0.53610106  0.28050846    -0.61600
O31         O  0.45870150  0.49932894  0.27786395    -0.74100
O32         O  0.53400661  0.49736446  0.27728020    -0.72900
Cu33       Cu  0.49630633  0.50071508  0.21674937     1.04600
Cu34       Cu  0.49637620  0.49839604  0.27954245     1.04300
C35         C  0.54605244  0.49790742  0.24794507     0.93400
C36         C  0.44659945  0.50038085  0.24857830     0.92500
C37         C  0.49746827  0.54917481  0.25202589     0.84700
C38         C  0.49527871  0.45004572  0.24422496     0.90900
N39         N  0.69459956  0.48815882  0.26413361    -0.27200
N40         N  0.69481991  0.49919524  0.23267288    -0.35000
C41         C  0.67108307  0.50175605  0.22103197     0.01200
C42         C  0.65499638  0.49185066  0.24635443     0.07200
C43         C  0.67065544  0.48345505  0.27337719    -0.05900
H44         H  0.66598858  0.51129408  0.19669202     0.07900
H45         H  0.66508232  0.47492375  0.29824797     0.09100
Cu46       Cu  0.72700880  0.51245075  0.20817085     0.44200
Cu47       Cu  0.72678562  0.48118312  0.29376002     0.42000
Cu48       Cu  0.78391752  0.50947156  0.26107351     0.43900
N49         N  0.76121519  0.52670338  0.19145171    -0.34600
N50         N  0.78182844  0.52587463  0.21102460    -0.28800
C51         C  0.80072695  0.53657915  0.19286864    -0.04900
C52         C  0.79166584  0.54452616  0.16019820     0.07300
C53         C  0.76644203  0.53809663  0.16037211     0.01100
H54         H  0.81961098  0.53868284  0.20304259     0.08800
H55         H  0.75291838  0.54123150  0.13935139     0.07800
N56         N  0.78247083  0.48711117  0.30630278    -0.36000
N57         N  0.76165879  0.47610298  0.31744905    -0.28200
C58         C  0.76730778  0.46051081  0.34443128    -0.03400
C59         C  0.79291744  0.46175538  0.35067140     0.05200
C60         C  0.80189066  0.47902298  0.32622972     0.03300
H61         H  0.75379366  0.44877119  0.35801951     0.08400
H62         H  0.82129192  0.48425537  0.32194695     0.07200
N63         N  0.47041676  0.78693507  0.21496680    -0.27200
N64         N  0.46370764  0.76547843  0.20010430    -0.35000
C65         C  0.44992688  0.77043215  0.17091356     0.01200
C66         C  0.44793320  0.79630470  0.16712872     0.07200
C67         C  0.46131059  0.80610330  0.19550259    -0.05900
H68         H  0.44241377  0.75620825  0.15337317     0.03100
H69         H  0.46399870  0.82575079  0.20181100     0.09100
Cu70       Cu  0.47436843  0.73058097  0.22002791     0.44200
Cu71       Cu  0.49124367  0.78900333  0.26141394     0.42000
Cu72       Cu  0.51268476  0.72977111  0.29960054     0.43900
N73         N  0.48795011  0.69799075  0.24381699    -0.34600
N74         N  0.50193936  0.69767906  0.27283499    -0.28800
C75         C  0.50740375  0.67372952  0.28131502    -0.04900
C76         C  0.49648167  0.65814721  0.25624191     0.07300
C77         C  0.48420308  0.67423127  0.23299004     0.01100
H78         H  0.51868622  0.66812838  0.30390419     0.08800
H79         H  0.47294405  0.66912657  0.21019486     0.07800
N80         N  0.51978429  0.76459322  0.32153865    -0.36000
N81         N  0.51182710  0.78610307  0.30799186    -0.28200
C82         C  0.52039243  0.80509439  0.32815705    -0.03400
C83         C  0.53449654  0.79503366  0.35565673     0.05200
C84         C  0.53369271  0.76930332  0.35052875     0.03300
H85         H  0.51757557  0.82476050  0.32207505     0.08400
H86         H  0.54297267  0.75501202  0.36625355     0.07200
N87         N  0.20802441  0.47732600  0.20726196    -0.27200
N88         N  0.22888870  0.47343191  0.18906737    -0.35000
C89         C  0.22332958  0.46005693  0.15985726     0.01200
C90         C  0.19772641  0.45529770  0.15964479     0.07200
C91         C  0.18866499  0.46654675  0.19020781    -0.05900
H92         H  0.23702101  0.45404043  0.14040489     0.07900
H93         H  0.16960305  0.46632556  0.20010936     0.09100
Cu94       Cu  0.26425975  0.48473964  0.20588533     0.44200
Cu95       Cu  0.20654210  0.49662548  0.25465982     0.42000
Cu96       Cu  0.26595094  0.51692598  0.29031435     0.43900
N97         N  0.29730741  0.49472490  0.23156649    -0.34600
N98         N  0.29780875  0.50615166  0.26269880    -0.28800
C99         C  0.32181823  0.50942988  0.27267752    -0.04900
C100        C  0.33736711  0.49971340  0.24651923     0.07300
C101        C  0.32104563  0.49042878  0.22088795     0.01100
H102        H  0.32747643  0.51854260  0.29707751     0.08800
H103        H  0.32587617  0.48074667  0.19659519     0.07800
N104        N  0.23158540  0.52642682  0.31225536    -0.36000
N105        N  0.20984462  0.51874760  0.29933268    -0.28200
C106        C  0.19114088  0.52842651  0.31895944    -0.03400
C107        C  0.20157408  0.54310762  0.34549336     0.05200
C108        C  0.22731676  0.54126374  0.34048360     0.03300
H109        H  0.17138618  0.52539287  0.31374440     0.08400
H110        H  0.24198397  0.54977448  0.35627890     0.07200
N111        N  0.47959199  0.79013154  0.79980267    -0.27200
N112        N  0.46993008  0.76884586  0.81163908    -0.35000
C113        C  0.45478975  0.77373539  0.83931721     0.01200
C114        C  0.45520583  0.79931153  0.84559303     0.07200
C115        C  0.47107861  0.80916886  0.81999509    -0.05900
H116        H  0.44468065  0.75962408  0.85427337     0.07900
H117        H  0.47582899  0.82872404  0.81597245     0.09100
Cu118      Cu  0.47891350  0.73398420  0.79133332     0.44200
Cu119      Cu  0.50353697  0.79211394  0.75639654     0.42000
Cu120      Cu  0.52234296  0.73297211  0.71701571     0.43900
N121        N  0.49284970  0.70139475  0.76912598    -0.34600
N122        N  0.50856704  0.70100483  0.74196802    -0.28800
C123        C  0.51373075  0.67699254  0.73376295    -0.04900
C124        C  0.50078520  0.66148767  0.75701001     0.07300
C125        C  0.48770162  0.67767593  0.77906164     0.01100
H126        H  0.52608338  0.67126880  0.71243169     0.08800
H127        H  0.47484462  0.67272791  0.80016077     0.07800
N128        N  0.53323154  0.76777767  0.69733201    -0.36000
N129        N  0.52614817  0.78931810  0.71165872    -0.28200
C130        C  0.53581578  0.80836282  0.69259525    -0.03400
C131        C  0.54970315  0.79841416  0.66481087     0.05200
C132        C  0.54774589  0.77257799  0.66884671     0.03300
H133        H  0.53317532  0.82799329  0.69897640     0.08400
H134        H  0.55594346  0.75829588  0.65199479     0.07200
O135        O  0.54025108  0.50373582  0.77915353    -0.72800
O136        O  0.46529209  0.50035878  0.77745181    -0.73800
O137        O  0.50481605  0.46457004  0.77522540    -0.62400
O138        O  0.50104988  0.53984834  0.78085616    -0.70800
O139        O  0.50157565  0.54138135  0.72209200    -0.70400
O140        O  0.50501454  0.46650059  0.71642398    -0.61600
O141        O  0.46543066  0.50224346  0.71868907    -0.74100
O142        O  0.54090600  0.50539668  0.72036443    -0.72900
Cu143      Cu  0.50278899  0.50207046  0.78019679     1.04600
Cu144      Cu  0.50321707  0.50400946  0.71734636     1.04300
C145        C  0.55254811  0.50475115  0.75009730     0.93400
C146        C  0.45337272  0.50067155  0.74798054     0.92500
C147        C  0.50581377  0.45362009  0.74503719     0.84700
C148        C  0.50096440  0.55260612  0.75205290     0.90900
N149        N  0.30459140  0.50205723  0.73632487    -0.27200
N150        N  0.30491088  0.48977501  0.76687074    -0.35000
C151        C  0.32891919  0.48638521  0.77703200     0.01200
C152        C  0.34447690  0.49703979  0.75162372     0.07200
C153        C  0.32834443  0.50671726  0.72618386    -0.05900
H154        H  0.33455452  0.47639960  0.80078115     0.07900
H155        H  0.33346774  0.51654708  0.70208401     0.09100
Cu156      Cu  0.27269817  0.47779685  0.79302157     0.44200
Cu157      Cu  0.27205756  0.51158356  0.70916693     0.42000
Cu158      Cu  0.21377218  0.49132651  0.74830717     0.43900
N159        N  0.23766253  0.46843929  0.81342353    -0.34600
N160        N  0.21625770  0.47360445  0.79716032    -0.28800
C161        C  0.19709681  0.46502948  0.81695696    -0.04900
C162        C  0.20681200  0.45365567  0.84710245     0.07300
C163        C  0.23265826  0.45631764  0.84399097     0.01100
H164        H  0.17753076  0.46639377  0.80939368     0.08800
H165        H  0.24688203  0.45007648  0.86253268     0.07800
N166        N  0.21586729  0.51034092  0.70041128    -0.36000
N167        N  0.23720948  0.51813625  0.68633955    -0.28200
C168        C  0.23214701  0.53145837  0.65682888    -0.03400
C169        C  0.20632419  0.53202251  0.65193867     0.05200
C170        C  0.19664997  0.51837840  0.68016151     0.03300
H171        H  0.24624190  0.54058957  0.64065847     0.08400
H172        H  0.17706590  0.51566294  0.68674289     0.07200
N173        N  0.50009532  0.30521611  0.72523382    -0.27200
N174        N  0.51536945  0.30490881  0.75292446    -0.35000
C175        C  0.52136386  0.32866583  0.76148748     0.01200
C176        C  0.50928206  0.34484350  0.73809992     0.07200
C177        C  0.49584280  0.32916565  0.71562079    -0.05900
H178        H  0.53363761  0.33367921  0.78325964     0.07900
H179        H  0.48332864  0.33453623  0.69431005     0.09100
Cu180      Cu  0.52706395  0.27247808  0.77864143     0.44200
Cu181      Cu  0.48585739  0.27338079  0.70075909     0.42000
Cu182      Cu  0.50750443  0.21483134  0.73645258     0.43900
N183        N  0.53542122  0.23706763  0.79837584    -0.34600
N184        N  0.52810955  0.21604929  0.78284098    -0.28800
C185        C  0.53639500  0.19631309  0.80179301    -0.04900
C186        C  0.54963699  0.20531479  0.83068250     0.07300
C187        C  0.54874501  0.23124779  0.82760645     0.01100
H188        H  0.53355002  0.17688683  0.79440915     0.08800
H189        H  0.55718767  0.24487862  0.84526606     0.07800
N190        N  0.48465786  0.21734155  0.69229478    -0.36000
N191        N  0.47628727  0.23882018  0.67929654    -0.28200
C192        C  0.46127349  0.23401718  0.65135820    -0.03400
C193        C  0.46001378  0.20814886  0.64665145     0.05200
C194        C  0.47524787  0.19829319  0.67310141     0.03300
H195        H  0.45226332  0.24842022  0.63557985     0.08400
H196        H  0.47881101  0.17866072  0.67864517     0.07200
N197        N  0.78953410  0.51956100  0.80105727    -0.27200
N198        N  0.76807723  0.52900105  0.81261716    -0.35000
C199        C  0.77262963  0.54418102  0.84036125     0.01200
C200        C  0.79828322  0.54455384  0.84663553     0.07200
C201        C  0.80836515  0.52853124  0.82126918    -0.05900
H202        H  0.75812268  0.55379354  0.85516489     0.07900
H203        H  0.82798478  0.52396737  0.81742327     0.09100
Cu204      Cu  0.73335993  0.52079954  0.79089757     0.44200
Cu205      Cu  0.79201790  0.49512547  0.75809529     0.42000
Cu206      Cu  0.73292416  0.47666544  0.71818925     0.43900
N207        N  0.70092532  0.50834963  0.76636839    -0.34600
N208        N  0.70083938  0.49214656  0.73980641    -0.28800
C209        C  0.67700975  0.48760664  0.73004997    -0.04900
C210        C  0.66125611  0.50170379  0.75147290     0.07300
C211        C  0.67710440  0.51452726  0.77433336     0.01100
H212        H  0.67167136  0.47457558  0.70935619     0.08800
H213        H  0.67176749  0.52752666  0.79509508     0.07800
N214        N  0.76746975  0.46452454  0.70015896    -0.36000
N215        N  0.78910473  0.47155653  0.71423622    -0.28200
C216        C  0.80794328  0.46170756  0.69492789    -0.03400
C217        C  0.79764179  0.44763822  0.66761446     0.05200
C218        C  0.77192178  0.44986553  0.67178582     0.03300
H219        H  0.82768576  0.46484614  0.70011015     0.08400
H220        H  0.75747419  0.44233445  0.65460642     0.07200
N221        N  0.99526099  0.80175670  0.77024913    -0.27200
N222        N  0.01183645  0.80162355  0.74410362    -0.35000
C223        C  0.01715542  0.82541637  0.73480687     0.01200
C224        C  0.00327840  0.84141850  0.75611116     0.07200
C225        C  0.98971374  0.82574814  0.77841853    -0.05900
H226        H  0.03055566  0.83059851  0.71449465     0.07900
H227        H  0.97666622  0.83136102  0.79897002     0.09100
Cu228      Cu  0.02681060  0.76935128  0.72212954     0.44200
Cu229      Cu  0.98136647  0.76926387  0.79403506     0.42000
Cu230      Cu  0.00828894  0.71078491  0.76240807     0.43900
N231        N  0.03790634  0.73462290  0.70327487    -0.34600
N232        N  0.03144267  0.71316585  0.71829406    -0.28800
C233        C  0.04060389  0.69410801  0.69881135    -0.04900
C234        C  0.05339179  0.70396918  0.66982639     0.07300
C235        C  0.05118823  0.72983561  0.67370491     0.01100
H236        H  0.03769599  0.67449712  0.70510777     0.08800
H237        H  0.05767075  0.74431029  0.65580199     0.07800
N238        N  0.98275321  0.71294636  0.80386725    -0.36000
N239        N  0.97264058  0.73415742  0.81521412    -0.28200
C240        C  0.95708099  0.72897930  0.84242341    -0.03400
C241        C  0.95748856  0.70324538  0.84877369     0.05200
C242        C  0.97391265  0.69376239  0.82346742     0.03300
H243        H  0.94664737  0.74305130  0.85699250     0.08400
H244        H  0.97895699  0.67434619  0.81903730     0.07200
O245        O  0.00354694  0.96220712  0.72704707    -0.72800
O246        O  0.00267135  0.03756779  0.72653242    -0.73800
O247        O  0.04058848  0.00042620  0.72461659    -0.62400
O248        O  0.96562141  0.99942863  0.72858104    -0.70800
O249        O  0.96669368  0.99996970  0.78739269    -0.70400
O250        O  0.04218027  0.00062302  0.78338962    -0.61600
O251        O  0.00423923  0.03795688  0.78532118    -0.74100
O252        O  0.00476076  0.96262613  0.78583579    -0.72900
Cu253      Cu  0.00304028  0.99992128  0.72468751     1.04600
Cu254      Cu  0.00452083  0.00030973  0.78754819     1.04300
C255        C  0.00416271  0.95040602  0.75664279     0.93400
C256        C  0.00353748  0.04975033  0.75577123     0.92500
C257        C  0.05337096  0.00068746  0.75334154     0.84700
C258        C  0.95417892  0.99939895  0.75840346     0.90900
N259        N  0.28994504  0.01697181  0.69453968    -0.27200
N260        N  0.26825082  0.02538962  0.68224560    -0.35000
C261        C  0.27247145  0.04014151  0.65386296     0.01200
C262        C  0.29809685  0.04095638  0.64766159     0.07200
C263        C  0.30857543  0.02605082  0.67410357    -0.05900
H264        H  0.25788861  0.04950128  0.63879172     0.07900
H265        H  0.32831547  0.02263033  0.67892585     0.09100
Cu266      Cu  0.23385350  0.01636356  0.70427111     0.44200
Cu267      Cu  0.29314234  0.99444591  0.73953075     0.42000
Cu268      Cu  0.23416631  0.97489408  0.78000989     0.43900
N269        N  0.20156659  0.00357728  0.72879403    -0.34600
N270        N  0.20159967  0.98836151  0.75654949    -0.28800
C271        C  0.17774499  0.98418159  0.76664923    -0.04900
C272        C  0.16193043  0.99726782  0.74396308     0.07300
C273        C  0.17772874  0.00937526  0.72031501     0.01100
H274        H  0.17233205  0.97254724  0.78895164     0.08800
H275        H  0.17244125  0.02208555  0.69915546     0.07800
N276        N  0.26929222  0.96616167  0.80036810    -0.36000
N277        N  0.29076301  0.97344481  0.78605758    -0.28200
C278        C  0.30983510  0.96539753  0.80666702    -0.03400
C279        C  0.29988677  0.95242827  0.83538978     0.05200
C280        C  0.27411964  0.95323052  0.83027712     0.03300
H281        H  0.32945865  0.96851712  0.80075996     0.08400
H282        H  0.25981688  0.94537475  0.84739815     0.07200
N283        N  0.97077908  0.28534058  0.70930365    -0.27200
N284        N  0.96478041  0.26352313  0.69492368    -0.35000
C285        C  0.95125254  0.26765236  0.66531452     0.01200
C286        C  0.94858086  0.29338625  0.66080370     0.07200
C287        C  0.96124736  0.30393616  0.68928631    -0.05900
H288        H  0.94487679  0.25293439  0.64772270     0.07900
H289        H  0.96376755  0.32371570  0.69484171     0.09100
Cu290      Cu  0.97692408  0.22927355  0.71452396     0.44200
Cu291      Cu  0.99364801  0.28917907  0.75332191     0.42000
Cu292      Cu  0.02260517  0.23171475  0.78496360     0.43900
N293        N  0.99312064  0.19774147  0.73714500    -0.34600
N294        N  0.00993250  0.19859735  0.76293149    -0.28800
C295        C  0.01650557  0.17504024  0.77191797    -0.04900
C296        C  0.00329588  0.15852279  0.75051925     0.07300
C297        C  0.98857509  0.17363186  0.72890188     0.01100
H298        H  0.02995176  0.17034058  0.79245196     0.08800
H299        H  0.97505981  0.16765674  0.70919146     0.07800
N300        N  0.03115081  0.26696769  0.80414889    -0.36000
N301        N  0.02022720  0.28792077  0.79329930    -0.28200
C302        C  0.02940728  0.30730225  0.81210404    -0.03400
C303        C  0.04710224  0.29806804  0.83574182     0.05200
C304        C  0.04763200  0.27240984  0.82999901     0.03300
H305        H  0.02357541  0.32665106  0.80881692     0.08400
H306        H  0.05848466  0.25851469  0.84433881     0.07200
N307        N  0.80534454  0.99879641  0.77021321    -0.27200
N308        N  0.80603969  0.98408200  0.74198855    -0.35000
C309        C  0.83013982  0.97958213  0.73352896     0.01200
C310        C  0.84542448  0.99234596  0.75735495     0.07200
C311        C  0.82892686  0.00411020  0.78042914    -0.05900
H312        H  0.83588987  0.96797316  0.71143406     0.07900
H313        H  0.83362200  0.01643550  0.80228320     0.09100
Cu314      Cu  0.77436432  0.97234505  0.71444487     0.44200
Cu315      Cu  0.77265253  0.01251819  0.79217575     0.42000
Cu316      Cu  0.71492338  0.99332809  0.75022585     0.43900
N317        N  0.73992409  0.96492922  0.69081680    -0.34600
N318        N  0.71828063  0.97247237  0.70426133    -0.28800
C319        C  0.69951577  0.96498936  0.68292518    -0.04900
C320        C  0.70976402  0.95221813  0.65431939     0.07300
C321        C  0.73547821  0.95243739  0.66040380     0.01100
H322        H  0.67986142  0.96831177  0.68842217     0.08800
H323        H  0.74995923  0.94432124  0.64383091     0.07800
N324        N  0.71644784  0.01692432  0.79365979    -0.36000
N325        N  0.73767191  0.02447384  0.80838473    -0.28200
C326        C  0.73243148  0.04031583  0.83511596    -0.03400
C327        C  0.70664183  0.04256959  0.83758151     0.05200
C328        C  0.69705825  0.02753831  0.81087522     0.03300
H329        H  0.74635594  0.04911458  0.85195271     0.08400
H330        H  0.67749929  0.02473204  0.80413957     0.07200
N331        N  0.98705272  0.19690375  0.25979316    -0.27200
N332        N  0.00063495  0.19685007  0.23040240    -0.35000
C333        C  0.00490688  0.17297051  0.22051577     0.01200
C334        C  0.99343561  0.15722080  0.24486575     0.07200
C335        C  0.98240452  0.17306024  0.26947408    -0.05900
H336        H  0.01618758  0.16758269  0.19787699     0.07900
H337        H  0.97177528  0.16768763  0.29275934     0.09100
Cu338      Cu  0.01359819  0.22898908  0.20561626     0.44200
Cu339      Cu  0.97558974  0.22907832  0.28604834     0.42000
Cu340      Cu  0.99448912  0.28738989  0.24694171     0.43900
N341        N  0.02440853  0.26407125  0.18769166    -0.34600
N342        N  0.01753797  0.28529276  0.20303590    -0.28800
C343        C  0.02771048  0.30468194  0.18537028    -0.04900
C344        C  0.04151780  0.29529436  0.15712272     0.07300
C345        C  0.03906715  0.26939788  0.15965645     0.01100
H346        H  0.02532841  0.32408656  0.19310234     0.08800
H347        H  0.04697635  0.25538018  0.14211658     0.07800
N348        N  0.97264655  0.28521620  0.29205226    -0.36000
N349        N  0.96598465  0.26375771  0.30687134    -0.28200
C350        C  0.95257190  0.26860446  0.33631528    -0.03400
C351        C  0.95048773  0.29448825  0.34011965     0.05200
C352        C  0.96357763  0.30432715  0.31148295     0.03300
H353        H  0.94542100  0.25420258  0.35384466     0.08400
H354        H  0.96627910  0.32394567  0.30501084     0.07200
O355        O  0.99634018  0.96178976  0.28095894    -0.72800
O356        O  0.99653237  0.03689320  0.27950615    -0.73800
O357        O  0.95884537  0.99963789  0.27947021    -0.62400
O358        O  0.03404801  0.99901498  0.28109037    -0.70800
O359        O  0.03476359  0.99821924  0.22230169    -0.70400
O360        O  0.95934019  0.99916440  0.22065799    -0.61600
O361        O  0.99726015  0.03631111  0.22069949    -0.74100
O362        O  0.99673275  0.96102791  0.22212427    -0.72900
Cu363      Cu  0.99641976  0.99934848  0.28226205     1.04600
Cu364      Cu  0.99704833  0.99866333  0.21937557     1.04300
C365        C  0.99673782  0.94944528  0.25188495     0.93400
C366        C  0.99672195  0.04858376  0.24986844     0.92500
C367        C  0.94710140  0.99969772  0.24984834     0.84700
C368        C  0.04640978  0.99835065  0.25203664     0.90900
N369        N  0.70857254  0.98190352  0.29203116    -0.27200
N370        N  0.72976734  0.97300777  0.30528686    -0.35000
C371        C  0.72437476  0.95686933  0.33168799     0.01200
C372        C  0.69846467  0.95546639  0.33545556     0.07200
C373        C  0.68910506  0.97166435  0.30965017    -0.05900
H374        H  0.73839449  0.94703807  0.34720733     0.07900
H375        H  0.66964888  0.97537795  0.30331570     0.09100
Cu376      Cu  0.76506330  0.98305480  0.28652449     0.44200
Cu377      Cu  0.70746207  0.00673144  0.24958053     0.42000
Cu378      Cu  0.76738537  0.02271995  0.20857273     0.43900
N379        N  0.79818422  0.99586210  0.26366392    -0.34600
N380        N  0.79891860  0.01027286  0.23508445    -0.28800
C381        C  0.82297011  0.01494946  0.22663863    -0.04900
C382        C  0.83824156  0.00296931  0.25115415     0.07300
C383        C  0.82183514  0.99100197  0.27422699     0.01100
H384        H  0.82885343  0.02627534  0.20425960     0.08800
H385        H  0.82662215  0.97905468  0.29648231     0.07800
N386        N  0.73296817  0.03368213  0.18879980    -0.36000
N387        N  0.71131036  0.02850663  0.20423565    -0.28200
C388        C  0.69265049  0.03869381  0.18502072    -0.03400
C389        C  0.70297622  0.05064288  0.15566254     0.05200
C390        C  0.72866798  0.04710631  0.15918923     0.03300
H391        H  0.67310019  0.03751122  0.19246020     0.08400
H392        H  0.74327098  0.05347134  0.14136786     0.07200
N393        N  0.97846804  0.71166398  0.21443519    -0.27200
N394        N  0.96892677  0.73296726  0.20250926    -0.35000
C395        C  0.95386939  0.72812953  0.17469529     0.01200
C396        C  0.95397828  0.70245787  0.16848310     0.07200
C397        C  0.96975672  0.69262298  0.19444410    -0.05900
H398        H  0.94402953  0.74239598  0.15963224     0.07900
H399        H  0.97437435  0.67309329  0.19897546     0.09100
Cu400      Cu  0.97805007  0.76767118  0.22331999     0.44200
Cu401      Cu  0.00282991  0.71003878  0.25741205     0.42000
Cu402      Cu  0.02542495  0.76994065  0.29241636     0.43900
N403        N  0.99277045  0.80058829  0.24348225    -0.34600
N404        N  0.01034443  0.80156906  0.26825180    -0.28800
C405        C  0.01571990  0.82577996  0.27502431    -0.04900
C406        C  0.00090872  0.84073646  0.25326716     0.07300
C407        C  0.98653948  0.82406088  0.23374386     0.01100
H408        H  0.02940167  0.83199994  0.29437486     0.08800
H409        H  0.97216932  0.82852596  0.21441564     0.07800
N410        N  0.03407302  0.73524563  0.31437449    -0.36000
N411        N  0.02546411  0.71365018  0.30199019    -0.28200
C412        C  0.03332913  0.69493945  0.32325855    -0.03400
C413        C  0.04758324  0.70519042  0.35036163     0.05200
C414        C  0.04782727  0.73078376  0.34371847     0.03300
H415        H  0.02915159  0.67528365  0.31898873     0.08400
H416        H  0.05687853  0.74517468  0.35946110     0.07200
N417        N  0.28387138  0.98104905  0.20405287    -0.27200
N418        N  0.26244357  0.97237424  0.19136073    -0.35000
C419        C  0.26720633  0.95754280  0.16331625     0.01200
C420        C  0.29291131  0.95696038  0.15808517     0.07200
C421        C  0.30291013  0.97218861  0.18425884    -0.05900
H422        H  0.25295472  0.94822707  0.14764836     0.07900
H423        H  0.32255888  0.97622090  0.18891989     0.09100
Cu424      Cu  0.22788539  0.98127763  0.21278131     0.44200
Cu425      Cu  0.28580586  0.00384966  0.24813454     0.42000
Cu426      Cu  0.22681061  0.01949008  0.29245278     0.43900
N427        N  0.19536188  0.99189353  0.23860473    -0.34600
N428        N  0.19481189  0.00546919  0.26797357    -0.28800
C429        C  0.17073338  0.00902848  0.27756246    -0.04900
C430        C  0.15538992  0.99735733  0.25278631     0.07300
C431        C  0.17174308  0.98655997  0.22861143     0.01100
H432        H  0.16483717  0.01987185  0.30039154     0.08800
H433        H  0.16700409  0.97541919  0.20556343     0.07800
N434        N  0.26187577  0.03180213  0.30913438    -0.36000
N435        N  0.28310485  0.02580247  0.29299782    -0.28200
C436        C  0.30241931  0.03621623  0.31046560    -0.03400
C437        C  0.29299817  0.04964208  0.33887194     0.05200
C438        C  0.26718610  0.04643732  0.33728932     0.03300
H439        H  0.32191681  0.03422134  0.30285278     0.08400
H440        H  0.25331627  0.05366766  0.35563059     0.07200
O441        O  0.08930587  0.37158812  0.96095640    -0.72800
O442        O  0.12488546  0.40745988  0.03933144    -0.73800
O443        O  0.12695444  0.40910882  0.96406762    -0.62400
O444        O  0.08758673  0.36995563  0.03626490    -0.70800
O445        O  0.11695435  0.34042957  0.03598846    -0.70400
O446        O  0.15636160  0.37963703  0.96461386    -0.61600
O447        O  0.15427509  0.37793936  0.03959760    -0.74100
O448        O  0.11876230  0.34216890  0.96073506    -0.72900
Cu449      Cu  0.10613464  0.39053609  0.00011142     1.04600
Cu450      Cu  0.13758388  0.35900499  0.00022221     1.04300
C451        C  0.09834983  0.35126868  0.94824513     0.93400
C452        C  0.14524600  0.39839142  0.05195377     0.92500
C453        C  0.14800924  0.40060714  0.95298000     0.84700
C454        C  0.09619969  0.34905406  0.04783703     0.90900
O455        O  0.62370673  0.15910064  0.95189492    -0.72800
O456        O  0.66119907  0.12338007  0.02853254    -0.73800
O457        O  0.66134476  0.12177069  0.95346523    -0.62400
O458        O  0.62308841  0.16059321  0.02729439    -0.70800
O459        O  0.59367773  0.13120534  0.02698249    -0.70400
O460        O  0.63210896  0.09220453  0.95435871    -0.61600
O461        O  0.63163270  0.09408375  0.02944217    -0.74100
O462        O  0.59440033  0.12961791  0.95154262    -0.72900
Cu463      Cu  0.64333125  0.14225222  0.99025139     1.04600
Cu464      Cu  0.61193628  0.11074850  0.99062497     1.04300
C465        C  0.60336992  0.15012287  0.93920995     0.93400
C466        C  0.65230364  0.10302235  0.04124706     0.92500
C467        C  0.65278293  0.10080609  0.94221310     0.84700
C468        C  0.60223493  0.15195387  0.03893928     0.90900
O469        O  0.86986825  0.59134225  0.04424520    -0.72800
O470        O  0.90993060  0.62921972  0.97073223    -0.73800
O471        O  0.90775448  0.62911401  0.04621225    -0.62400
O472        O  0.87251618  0.59114255  0.96913091    -0.70800
O473        O  0.84297819  0.62042251  0.96718426    -0.70400
O474        O  0.87832974  0.65851732  0.04496665    -0.61600
O475        O  0.88038693  0.65848687  0.96942342    -0.74100
O476        O  0.84029578  0.62062130  0.04222639    -0.72900
Cu477      Cu  0.89104963  0.60922085  0.00770375     1.04600
Cu478      Cu  0.85950237  0.64055578  0.00592415     1.04300
C479        C  0.84850990  0.59975415  0.05439465     0.93400
C480        C  0.90135795  0.64990099  0.95822353     0.92500
C481        C  0.89885507  0.64985570  0.05779448     0.84700
C482        C  0.85207225  0.59961047  0.95599776     0.90900
O483        O  0.37923506  0.84352611  0.96663202    -0.72800
O484        O  0.34038832  0.88225128  0.03936725    -0.73800
O485        O  0.34205079  0.88137201  0.96425969    -0.62400
O486        O  0.37759631  0.84411990  0.04202276    -0.70800
O487        O  0.40716262  0.87331416  0.04301366    -0.70400
O488        O  0.37163752  0.91054855  0.96402592    -0.61600
O489        O  0.36984035  0.91161515  0.03947488    -0.74100
O490        O  0.40903662  0.87253027  0.96739468    -0.72900
Cu491      Cu  0.35882052  0.86182690  0.00308084     1.04600
Cu492      Cu  0.39047654  0.89302090  0.00355303     1.04300
C493        C  0.40017577  0.85196847  0.95516772     0.93400
C494        C  0.34886170  0.90319659  0.05081589     0.92500
C495        C  0.35109913  0.90169975  0.95156067     0.84700
C496        C  0.39803210  0.85274764  0.05499960     0.90900
O497        O  0.09202421  0.62601817  0.54605965    -0.72800
O498        O  0.12681947  0.58940032  0.46698208    -0.73800
O499        O  0.12838331  0.58659118  0.54198277    -0.62400
O500        O  0.09075336  0.62868219  0.47079394    -0.70800
O501        O  0.12164568  0.65649982  0.47095939    -0.70400
O502        O  0.15864632  0.61507365  0.54276632    -0.61600
O503        O  0.15759792  0.61733976  0.46797385    -0.74100
O504        O  0.12244673  0.65440745  0.54580716    -0.72900
Cu505      Cu  0.10839622  0.60669432  0.50647635     1.04600
Cu506      Cu  0.14110973  0.63679509  0.50698569     1.04300
C507        C  0.10160654  0.64630246  0.55811649     0.93400
C508        C  0.14780543  0.59742472  0.45507674     0.92500
C509        C  0.14980671  0.59401918  0.55321264     0.84700
C510        C  0.10031072  0.64921233  0.45940130     0.90900
O511        O  0.37237655  0.09204740  0.53122080    -0.72800
O512        O  0.41128178  0.12893113  0.45706662    -0.73800
O513        O  0.41111337  0.12897332  0.53216591    -0.62400
O514        O  0.37237326  0.09277281  0.45630448    -0.70800
O515        O  0.34390943  0.12314277  0.45643055    -0.70400
O516        O  0.38215829  0.15886489  0.53260292    -0.61600
O517        O  0.38299242  0.15948676  0.45746039    -0.74100
O518        O  0.34326637  0.12177900  0.53163746    -0.72900
Cu519      Cu  0.39275123  0.10964890  0.49425241     1.04600
Cu520      Cu  0.36207886  0.14188914  0.49459516     1.04300
C521        C  0.35151416  0.10060088  0.54283166     0.93400
C522        C  0.40342731  0.15005200  0.44544439     0.92500
C523        C  0.40295195  0.14996168  0.54402395     0.84700
C524        C  0.35195159  0.10220980  0.44435698     0.90900
O525        O  0.90843903  0.37040007  0.53733983    -0.72800
O526        O  0.87116762  0.41077730  0.46431933    -0.73800
O527        O  0.87129369  0.40850493  0.53971373    -0.62400
O528        O  0.90833446  0.37221508  0.46191821    -0.70800
O529        O  0.87836618  0.34337828  0.46112268    -0.70400
O530        O  0.84145241  0.37958452  0.53812491    -0.61600
O531        O  0.84131628  0.38184281  0.46271035    -0.74100
O532        O  0.87854226  0.34151501  0.53616093    -0.72900
Cu533      Cu  0.89085112  0.39149073  0.50080645     1.04600
Cu534      Cu  0.85889141  0.36060085  0.49940703     1.04300
C535        C  0.89935275  0.34966200  0.54859273     0.93400
C536        C  0.85022776  0.40286377  0.45209116     0.92500
C537        C  0.85058075  0.39965873  0.55149313     0.84700
C538        C  0.89924650  0.35180992  0.44943886     0.90900
O539        O  0.63312206  0.90878666  0.53448449    -0.72800
O540        O  0.58992370  0.87015582  0.46698211    -0.73800
O541        O  0.59501212  0.87189438  0.54171803    -0.62400
O542        O  0.62810045  0.90687027  0.45944322    -0.70800
O543        O  0.65708741  0.87705975  0.45729229    -0.70400
O544        O  0.62371419  0.84181966  0.53940285    -0.61600
O545        O  0.61877549  0.84021288  0.46449471    -0.74100
O546        O  0.66196660  0.87881127  0.53251642    -0.72900
Cu547      Cu  0.61058380  0.89047386  0.50073014     1.04600
Cu548      Cu  0.64140969  0.85844180  0.49833095     1.04300
C549        C  0.65431141  0.89994294  0.54446735     0.93400
C550        C  0.59741987  0.84896854  0.45508403     0.92500
C551        C  0.60392127  0.85114271  0.55342343     0.84700
C552        C  0.64788783  0.89759675  0.44531080     0.90900
C553        C  0.30783102  0.06338108  0.36568301    -0.05300
C554        C  0.33144517  0.05402169  0.37568047    -0.32800
C555        C  0.34606133  0.06640428  0.40103669     0.36500
C556        C  0.33724053  0.08881292  0.41677772    -0.05700
C557        C  0.31370065  0.09835969  0.40625899    -0.32700
C558        C  0.29908116  0.08587855  0.38092994     0.36400
H559        H  0.33852995  0.03676169  0.36416199     0.16800
O560        O  0.36907872  0.05654035  0.40972298    -0.60200
H561        H  0.30649521  0.11560244  0.41767243     0.16800
O562        O  0.27653205  0.09613589  0.37081551    -0.60300
H563        H  0.28047720  0.10687945  0.34998640     0.43800
H564        H  0.36560273  0.04374060  0.42826950     0.43700
C565        C  0.30678958  0.94328446  0.13031533    -0.05300
C566        C  0.32692442  0.95505675  0.11307714    -0.32800
C567        C  0.34052731  0.94250831  0.08669779     0.36500
C568        C  0.33433781  0.91750886  0.07762550    -0.05700
C569        C  0.31403548  0.90585764  0.09491481    -0.32700
C570        C  0.30020830  0.91859163  0.12085252     0.36400
H571        H  0.33190493  0.97423140  0.11970844     0.16800
O572        O  0.35928748  0.95517025  0.06929637    -0.60200
H573        H  0.30895633  0.88665134  0.08867280     0.16800
O574        O  0.28116521  0.90626446  0.13813022    -0.60300
H575        H  0.26683408  0.90632104  0.12125928     0.43800
H576        H  0.37418948  0.95384041  0.08500579     0.43700
C577        C  0.06033975  0.69161178  0.37954337    -0.05300
C578        C  0.08401390  0.69968930  0.39118248    -0.32800
C579        C  0.09724933  0.68623448  0.41714180     0.36500
C580        C  0.08661228  0.66443785  0.43251171    -0.05700
C581        C  0.06251481  0.65690578  0.42153293    -0.32700
C582        C  0.04940813  0.67029589  0.39544279     0.36400
H583        H  0.09267547  0.71609983  0.37934715     0.16800
O584        O  0.12061353  0.69456189  0.42699484    -0.60200
H585        H  0.05370669  0.64049156  0.43312348     0.16800
O586        O  0.02578493  0.66248156  0.38600899    -0.60300
H587        H  0.01415453  0.67262524  0.40076285     0.43800
H588        H  0.13234565  0.68721751  0.40935056     0.43700
C589        C  0.91269633  0.66369822  0.08606448    -0.05300
C590        C  0.93504383  0.65342604  0.09985501    -0.32800
C591        C  0.94876424  0.66583165  0.12626448     0.36500
C592        C  0.94008616  0.68887369  0.14011452    -0.05700
C593        C  0.91789803  0.69930985  0.12614789    -0.32700
C594        C  0.90435309  0.68708755  0.09930941     0.36400
H595        H  0.94218529  0.63570117  0.08993420     0.16800
O596        O  0.97091181  0.65539654  0.13766270    -0.60200
H597        H  0.91078992  0.71699217  0.13623394     0.16800
O598        O  0.88287536  0.69816417  0.08659748    -0.60300
H599        H  0.88854832  0.70940690  0.06716279     0.43800
H600        H  0.98403153  0.66274448  0.12214278     0.43700
C601        C  0.68439753  0.93982579  0.36159774    -0.05300
C602        C  0.69576339  0.91810292  0.37561885    -0.32800
C603        C  0.68398193  0.90380402  0.40207510     0.36500
C604        C  0.66025929  0.91110230  0.41535433    -0.05700
C605        C  0.64853030  0.93234834  0.40047105    -0.32700
C606        C  0.66023007  0.94652520  0.37378963     0.36400
H607        H  0.71403234  0.91212012  0.36620869     0.16800
O608        O  0.69603148  0.88285658  0.41482640    -0.60200
H609        H  0.63025863  0.93835268  0.40988956     0.16800
O610        O  0.64836150  0.96766953  0.36140673    -0.60300
H611        H  0.63522887  0.96146398  0.34494067     0.43800
H612        H  0.70730006  0.88909622  0.43388828     0.43700
C613        C  0.68977644  0.06406978  0.12649124    -0.05300
C614        C  0.70305933  0.08141402  0.10544435    -0.32800
C615        C  0.69130454  0.09410071  0.07741363     0.36500
C616        C  0.66566995  0.08979171  0.07015986    -0.05700
C617        C  0.65244142  0.07247215  0.09105128    -0.32700
C618        C  0.66420937  0.05958402  0.11874425     0.36400
H619        H  0.72265723  0.08535224  0.11069041     0.16800
O620        O  0.70514359  0.11052769  0.05727084    -0.60200
H621        H  0.63274114  0.06881982  0.08597475     0.16800
O622        O  0.65042814  0.04239653  0.13754791    -0.60300
H623        H  0.65230030  0.02637172  0.12439173     0.43800
H624        H  0.71219247  0.10023312  0.03768521     0.43700
C625        C  0.07433002  0.99768193  0.25267431    -0.05300
C626        C  0.08768631  0.99710940  0.22047163    -0.32800
C627        C  0.11398574  0.99665411  0.22002959     0.36500
C628        C  0.12755701  0.99701834  0.25220834    -0.05700
C629        C  0.11429224  0.99755856  0.28439331    -0.32700
C630        C  0.08800100  0.99767343  0.28488944     0.36400
H631        H  0.07776719  0.99722487  0.19532940     0.16800
O632        O  0.12616778  0.99731376  0.18793917    -0.60200
H633        H  0.12433521  0.99765688  0.30943779     0.16800
O634        O  0.07598896  0.99819293  0.31710150    -0.60300
H635        H  0.07489303  0.98028889  0.32470115     0.43800
H636        H  0.12434631  0.98017577  0.17793806     0.43700
C637        C  0.99753324  0.92161074  0.25260414    -0.05300
C638        C  0.99292908  0.90801826  0.22127483    -0.32800
C639        C  0.99411709  0.88175590  0.22097595     0.36500
C640        C  0.99985265  0.86851665  0.25243393    -0.05700
C641        C  0.00460048  0.88206458  0.28366739    -0.32700
C642        C  0.00349932  0.90830589  0.28398619     0.36400
H643        H  0.98847686  0.91774856  0.19676396     0.16800
O644        O  0.99012199  0.86933214  0.18957315    -0.60200
H645        H  0.00895105  0.87228622  0.30816709     0.16800
O646        O  0.00838936  0.92065803  0.31520082    -0.60300
H647        H  0.02675401  0.92383118  0.31499446     0.43800
H648        H  0.00700015  0.86743838  0.17876873     0.43700
C649        C  0.91920966  0.00051617  0.24967339    -0.05300
C650        C  0.90610895  0.99923606  0.28207324    -0.32800
C651        C  0.87985590  0.00018202  0.28303949     0.36500
C652        C  0.86605317  0.00222548  0.25121956    -0.05700
C653        C  0.87906981  0.00369591  0.21885380    -0.32700
C654        C  0.90533182  0.00291619  0.21784650     0.36400
H655        H  0.91621104  0.99762187  0.30696786     0.16800
O656        O  0.86798599  0.99956456  0.31535112    -0.60200
H657        H  0.86886363  0.00517011  0.19403184     0.16800
O658        O  0.91710350  0.00429911  0.18550051    -0.60300
H659        H  0.91911270  0.02253402  0.18073702     0.43800
H660        H  0.86679528  0.01736539  0.32293466     0.43700
C661        C  0.93749954  0.30885711  0.36854034    -0.05300
C662        C  0.94490749  0.33369416  0.37583110    -0.32800
C663        C  0.93286137  0.34792336  0.40209491     0.36500
C664        C  0.91283359  0.33745331  0.42163331    -0.05700
C665        C  0.90548532  0.31262079  0.41437128    -0.32700
C666        C  0.91745683  0.29843939  0.38811790     0.36400
H667        H  0.96025093  0.34221018  0.36131503     0.16800
O668        O  0.94034686  0.37227551  0.40754811    -0.60200
H669        H  0.89019986  0.30405092  0.42899404     0.16800
O670        O  0.90889917  0.27461751  0.38146494    -0.60300
H671        H  0.89584196  0.27664081  0.36286463     0.43800
H672        H  0.95528712  0.37108828  0.42321420     0.43700
C673        C  0.05557277  0.30949427  0.12964639    -0.05300
C674        C  0.07518052  0.29755570  0.11124711    -0.32800
C675        C  0.08835056  0.30998763  0.08437301     0.36500
C676        C  0.08225810  0.33505333  0.07556431    -0.05700
C677        C  0.06273196  0.34704641  0.09405473    -0.32700
C678        C  0.04938593  0.33452710  0.12068632     0.36400
H679        H  0.08048751  0.27843893  0.11768151     0.16800
O680        O  0.10711696  0.29733061  0.06695641    -0.60200
H681        H  0.05768613  0.36629498  0.08789100     0.16800
O682        O  0.03007881  0.34695256  0.13717594    -0.60300
H683        H  0.01483934  0.34262152  0.12331630     0.43800
H684        H  0.09876294  0.28915740  0.04643448     0.43700
C685        C  0.99404139  0.12948388  0.24580884    -0.05300
C686        C  0.99506821  0.11711173  0.27869734    -0.32800
C687        C  0.99622682  0.09089501  0.28056663     0.36500
C688        C  0.99601268  0.07644616  0.24908259    -0.05700
C689        C  0.99459695  0.08893113  0.21619450    -0.32700
C690        C  0.99369526  0.11517417  0.21438287     0.36400
H691        H  0.99540609  0.12781647  0.30316622     0.16800
O692        O  0.99728708  0.07971543  0.31338474    -0.60200
H693        H  0.99397546  0.07836531  0.19161981     0.16800
O694        O  0.99110590  0.12656761  0.18186818    -0.60300
H695        H  0.00776064  0.12500917  0.17030680     0.43800
H696        H  0.01540730  0.07908010  0.31948390     0.43700
C697        C  0.69617654  0.94000373  0.62456267    -0.05300
C698        C  0.70688511  0.91909437  0.60755585    -0.32800
C699        C  0.69391672  0.90626734  0.58077445     0.36500
C700        C  0.66958435  0.91411936  0.57066922    -0.05700
C701        C  0.65932473  0.93562663  0.58677185    -0.32700
C702        C  0.67240134  0.94859569  0.61321398     0.36400
H703        H  0.72518077  0.91220080  0.61556749     0.16800
O704        O  0.70509056  0.88578418  0.56530733    -0.60200
H705        H  0.64087353  0.94238024  0.57919386     0.16800
O706        O  0.66167142  0.96970296  0.62757291    -0.60300
H707        H  0.66835140  0.98390640  0.61337041     0.43800
H708        H  0.71427256  0.89255296  0.54447761     0.43700
C709        C  0.69256179  0.05747959  0.86377477    -0.05300
C710        C  0.70108111  0.08153098  0.87288428    -0.32800
C711        C  0.68834312  0.09595372  0.89816468     0.36500
C712        C  0.66673215  0.08624061  0.91505744    -0.05700
C713        C  0.65832352  0.06204788  0.90580422    -0.32700
C714        C  0.67105055  0.04772082  0.88045663     0.36400
H715        H  0.71756023  0.08930220  0.86005709     0.16800
O716        O  0.69691885  0.11969346  0.90544930    -0.60200
H717        H  0.64192025  0.05400955  0.91846875     0.16800
O718        O  0.66263358  0.02396486  0.87285814    -0.60300
H719        H  0.67267435  0.01262066  0.88824312     0.43800
H720        H  0.71015329  0.11739055  0.92373756     0.43700
C721        C  0.93638006  0.30706120  0.63109263    -0.05300
C722        C  0.94500765  0.33115132  0.62199090    -0.32800
C723        C  0.93341713  0.34512763  0.59510974     0.36500
C724        C  0.91274283  0.33505525  0.57641596    -0.05700
C725        C  0.90433498  0.31079710  0.58522257    -0.32700
C726        C  0.91599877  0.29679348  0.61210517     0.36400
H727        H  0.96087941  0.33933223  0.63576487     0.16800
O728        O  0.94243946  0.36868459  0.58765624    -0.60200
H729        H  0.88845644  0.30261180  0.57144405     0.16800
O730        O  0.90640680  0.27368201  0.62078204    -0.60300
H731        H  0.91205307  0.26224728  0.60158099     0.43800
H732        H  0.93360804  0.38006679  0.60437592     0.43700
C733        C  0.08525966  0.33822434  0.91880570    -0.05300
C734        C  0.09701661  0.31781174  0.90189361    -0.32800
C735        C  0.08510537  0.30496313  0.87425834     0.36500
C736        C  0.06085066  0.31221508  0.86327401    -0.05700
C737        C  0.04926701  0.33286283  0.87959125    -0.32700
C738        C  0.06120499  0.34584628  0.90707790     0.36400
H739        H  0.11561544  0.31177966  0.90994757     0.16800
O740        O  0.09751134  0.28552064  0.85799371    -0.60200
H741        H  0.03056092  0.33863610  0.87166356     0.16800
O742        O  0.04872786  0.36538575  0.92300392    -0.60300
H743        H  0.05184668  0.38014747  0.90754726     0.43800
H744        H  0.10542471  0.29304465  0.83663222     0.43700
C745        C  0.33709800  0.08546856  0.56912146    -0.05300
C746        C  0.34696388  0.06228112  0.58057636    -0.32800
C747        C  0.33430536  0.04745240  0.60546456     0.36500
C748        C  0.31134187  0.05570160  0.61992664    -0.05700
C749        C  0.30105824  0.07852123  0.60789619    -0.32700
C750        C  0.31364634  0.09332822  0.58272264     0.36400
H751        H  0.36466673  0.05543182  0.57019362     0.16800
O752        O  0.34450330  0.02476270  0.61506481    -0.60200
H753        H  0.28338458  0.08523402  0.61854154     0.16800
O754        O  0.30302236  0.11563536  0.57227265    -0.60300
H755        H  0.29098667  0.11110468  0.55319862     0.43800
H756        H  0.33781193  0.01252058  0.59760999     0.43700
C757        C  0.31339678  0.93980884  0.86498065    -0.05300
C758        C  0.30268072  0.91845705  0.88072163    -0.32800
C759        C  0.31462528  0.90595572  0.90872878     0.36500
C760        C  0.33780471  0.91484553  0.92206334    -0.05700
C761        C  0.34839539  0.93645316  0.90656556    -0.32700
C762        C  0.33648030  0.94882746  0.87821131     0.36400
H763        H  0.28500056  0.91110711  0.87099470     0.16800
O764        O  0.30312964  0.88526038  0.92311919    -0.60200
H765        H  0.36601649  0.94387744  0.91640203     0.16800
O766        O  0.34695348  0.97040648  0.86489230    -0.60300
H767        H  0.36142240  0.96477095  0.85038733     0.43800
H768        H  0.30835491  0.87097032  0.90790319     0.43700
C769        C  0.92632299  0.99820190  0.75881923    -0.05300
C770        C  0.91351916  0.99308766  0.72698124    -0.32800
C771        C  0.88736235  0.99132714  0.72601815     0.36500
C772        C  0.87324498  0.99429208  0.75743207    -0.05700
C773        C  0.88596374  0.99983192  0.78923752    -0.32700
C774        C  0.91221434  0.00176815  0.79015204     0.36400
H775        H  0.92379461  0.99044361  0.70242804     0.16800
O776        O  0.87591719  0.98723515  0.69391099    -0.60200
H777        H  0.87559653  0.00243791  0.81370516     0.16800
O778        O  0.92372953  0.00772964  0.82164678    -0.60300
H779        H  0.92540435  0.99157166  0.83458104     0.43800
H780        H  0.87203863  0.00421040  0.68447666     0.43700
C781        C  0.00381442  0.07763262  0.75505056    -0.05300
C782        C  0.99975599  0.09014156  0.72264803    -0.32800
C783        C  0.99992461  0.11634947  0.72071307     0.36500
C784        C  0.00398198  0.13074127  0.75158262    -0.05700
C785        C  0.00848230  0.11835079  0.78391289    -0.32700
C786        C  0.00841305  0.09207349  0.78587296     0.36400
H787        H  0.99643119  0.07959967  0.69849069     0.16800
O788        O  0.99645969  0.12761101  0.68829259    -0.60200
H789        H  0.01164469  0.12904950  0.80797541     0.16800
O790        O  0.01262115  0.08083767  0.81814767    -0.60300
H791        H  0.03113373  0.07894363  0.81983773     0.43800
H792        H  0.01361263  0.13074694  0.67905755     0.43700
C793        C  0.08124392  0.00081142  0.75144408    -0.05300
C794        C  0.09309516  0.00109030  0.71803202    -0.32800
C795        C  0.11930439  0.00041852  0.71515081     0.36500
C796        C  0.13423308  0.99892187  0.74598145    -0.05700
C797        C  0.12250877  0.99888557  0.77934863    -0.32700
C798        C  0.09634360  0.00020435  0.78230650     0.36400
H799        H  0.08205552  0.00161810  0.69385017     0.16800
O800        O  0.13003173  0.99984004  0.68202864    -0.60200
H801        H  0.13370409  0.99815835  0.80337872     0.16800
O802        O  0.08584624  0.00050256  0.81556532    -0.60300
H803        H  0.08499596  0.01851714  0.82223234     0.43800
H804        H  0.12882904  0.01731903  0.67297311     0.43700
C805        C  0.06541039  0.68963938  0.64040407    -0.05300
C806        C  0.05863459  0.66439407  0.63471545    -0.32800
C807        C  0.07002748  0.65005299  0.60803468     0.36500
C808        C  0.08858876  0.66086256  0.58615718    -0.05700
C809        C  0.09502400  0.68617626  0.59131311    -0.32700
C810        C  0.08375685  0.70049160  0.61805416     0.36400
H811        H  0.04436726  0.65555517  0.65091333     0.16800
O812        O  0.06295875  0.62544705  0.60390093    -0.60200
H813        H  0.10902859  0.69502317  0.57459325     0.16800
O814        O  0.09125197  0.72494137  0.62219390    -0.60300
H815        H  0.10603494  0.72418735  0.63820653     0.43800
H816        H  0.07432226  0.61572307  0.61967095     0.43700
C817        C  0.94334965  0.68925897  0.87667658    -0.05300
C818        C  0.92097403  0.69947532  0.89022107    -0.32800
C819        C  0.90713577  0.68699626  0.91651399     0.36500
C820        C  0.91567465  0.66381079  0.93040080    -0.05700
C821        C  0.93817867  0.65369125  0.91705549    -0.32700
C822        C  0.95186925  0.66604942  0.89042183     0.36400
H823        H  0.91385438  0.71715330  0.88008495     0.16800
O824        O  0.88543212  0.69793014  0.92863895    -0.60200
H825        H  0.94532520  0.63603144  0.92725763     0.16800
O826        O  0.97413390  0.65573701  0.87931371    -0.60300
H827        H  0.96935281  0.64135159  0.86400990     0.43800
H828        H  0.87215000  0.69237144  0.91190503     0.43700
C829        C  0.00346488  0.86924424  0.75592001    -0.05300
C830        C  0.00109587  0.88234662  0.78805992    -0.32800
C831        C  0.00144273  0.90864597  0.78883400     0.36500
C832        C  0.00405593  0.92246633  0.75695264    -0.05700
C833        C  0.00626717  0.90924758  0.72475645    -0.32700
C834        C  0.00597909  0.88294980  0.72406236     0.36400
H835        H  0.99928585  0.87215269  0.81285500     0.16800
O836        O  0.99937855  0.92052340  0.82102644    -0.60200
H837        H  0.00816959  0.91928978  0.69985433     0.16800
O838        O  0.00769014  0.87090410  0.69195371    -0.60300
H839        H  0.99008828  0.86844991  0.68408517     0.43800
H840        H  0.98108038  0.92285594  0.82476605     0.43700
C841        C  0.81199635  0.55879528  0.87448189    -0.05300
C842        C  0.83487158  0.54949788  0.88770092    -0.32800
C843        C  0.84810105  0.56236860  0.91423984     0.36500
C844        C  0.83868246  0.58527224  0.92787795    -0.05700
C845        C  0.81586844  0.59458270  0.91443729    -0.32700
C846        C  0.80265905  0.58170046  0.88801084     0.36400
H847        H  0.84243055  0.53193044  0.87785149     0.16800
O848        O  0.87032143  0.55241714  0.92626412    -0.60200
H849        H  0.80817083  0.61210529  0.92425021     0.16800
O850        O  0.78088415  0.59208708  0.87519711    -0.60300
H851        H  0.78604361  0.60214927  0.85422659     0.43800
H852        H  0.86549455  0.54028138  0.94509009     0.43700
C853        C  0.81117766  0.43505852  0.63830852    -0.05300
C854        C  0.83268506  0.44636390  0.62395083    -0.32800
C855        C  0.84558157  0.43530570  0.59557588     0.36500
C856        C  0.83712539  0.41233036  0.58109429    -0.05700
C857        C  0.81559390  0.40100036  0.59573238    -0.32700
C858        C  0.80270072  0.41213360  0.62404150     0.36400
H859        H  0.83930690  0.46415115  0.63433092     0.16800
O860        O  0.86604981  0.44751267  0.58177289    -0.60200
H861        H  0.80874041  0.38327739  0.58544320     0.16800
O862        O  0.78208164  0.40019851  0.63789889    -0.60300
H863        H  0.78874081  0.38930129  0.65711240     0.43800
H864        H  0.88039401  0.44233414  0.59694576     0.43700
C865        C  0.59011001  0.16372805  0.91032819    -0.05300
C866        C  0.56678176  0.15493413  0.89795366    -0.32800
C867        C  0.55353821  0.16800926  0.87157870     0.36500
C868        C  0.56332389  0.19054903  0.85768141    -0.05700
C869        C  0.58669374  0.19916055  0.86961532    -0.32700
C870        C  0.60027082  0.18579436  0.89514208     0.36400
H871        H  0.55857737  0.13801044  0.90895832     0.16800
O872        O  0.53045983  0.15932880  0.86099424    -0.60200
H873        H  0.59472421  0.21618729  0.85865541     0.16800
O874        O  0.62339037  0.19470364  0.90511386    -0.60300
H875        H  0.63549457  0.18656232  0.88870287     0.43800
H876        H  0.53405495  0.14507104  0.84484308     0.43700
C877        C  0.44542700  0.19368040  0.61992032    -0.05300
C878        C  0.45351112  0.16946972  0.61027001    -0.32800
C879        C  0.44003986  0.15500954  0.58573288     0.36500
C880        C  0.41772106  0.16450287  0.57049954    -0.05700
C881        C  0.40968070  0.18875132  0.58012411    -0.32700
C882        C  0.42322077  0.20324434  0.60450958     0.36400
H883        H  0.47057953  0.16168975  0.62145396     0.16800
O884        O  0.44878784  0.13150523  0.57731088    -0.60200
H885        H  0.39271745  0.19665215  0.56875060     0.16800
O886        O  0.41419193  0.22653712  0.61341320    -0.60300
H887        H  0.40287264  0.22363210  0.63390182     0.43800
H888        H  0.46128526  0.13423983  0.55814716     0.43700
C889        C  0.19234574  0.44063507  0.87534515    -0.05300
C890        C  0.16761407  0.44829549  0.88270301    -0.32800
C891        C  0.15297050  0.43565871  0.90791758     0.36500
C892        C  0.16300542  0.41492165  0.92658075    -0.05700
C893        C  0.18784128  0.40745972  0.91944263    -0.32700
C894        C  0.20240277  0.41999367  0.89410108     0.36400
H895        H  0.15948747  0.46417272  0.86879271     0.16800
O896        O  0.12884547  0.44371869  0.91380286    -0.60200
H897        H  0.19606382  0.39160662  0.93331191     0.16800
O898        O  0.22618184  0.41133896  0.88727800    -0.60300
H899        H  0.22412425  0.39863938  0.86824334     0.43800
H900        H  0.11834416  0.43410595  0.89680558     0.43700
C901        C  0.19213543  0.54697139  0.62536775    -0.05300
C902        C  0.20245199  0.56945783  0.61251593    -0.32800
C903        C  0.18907083  0.58480409  0.58898594     0.36500
C904        C  0.16461820  0.57797849  0.57796517    -0.05700
C905        C  0.15455753  0.55510676  0.59017784    -0.32700
C906        C  0.16814320  0.53960403  0.61339867     0.36400
H907        H  0.22084807  0.57554977  0.62126226     0.16800
O908        O  0.20009176  0.60660736  0.57741248    -0.60200
H909        H  0.13608241  0.54908128  0.58164391     0.16800
O910        O  0.15784955  0.51716851  0.62382928    -0.60300
H911        H  0.16397295  0.50467958  0.60630447     0.43800
H912        H  0.20980509  0.60176429  0.55598626     0.43700
C913        C  0.58040040  0.50461889  0.75077458    -0.05300
C914        C  0.59371670  0.50068891  0.71903787    -0.32800
C915        C  0.61995691  0.49967962  0.71883176     0.36500
C916        C  0.63349235  0.50262873  0.75075562    -0.05700
C917        C  0.62026672  0.50674358  0.78245350    -0.32700
C918        C  0.59401407  0.50771279  0.78271938     0.36400
H919        H  0.58378583  0.49821211  0.69415399     0.16800
O920        O  0.63209889  0.49614254  0.68710781    -0.60200
H921        H  0.63028425  0.50889504  0.80732796     0.16800
O922        O  0.58196413  0.51143718  0.81448792    -0.60300
H923        H  0.58063115  0.52993809  0.81705138     0.43800
H924        H  0.63567148  0.51328837  0.67808547     0.43700
C925        C  0.50779301  0.42588610  0.74305894    -0.05300
C926        C  0.50230396  0.41353711  0.71100676    -0.32800
C927        C  0.50326233  0.38731521  0.70861557     0.36500
C928        C  0.50954336  0.37277565  0.73877656    -0.05700
C929        C  0.51591646  0.38524075  0.77042369    -0.32700
C930        C  0.51510262  0.41144878  0.77274172     0.36400
H931        H  0.49701528  0.42421248  0.68763607     0.16800
O932        O  0.49816313  0.37628804  0.67651510    -0.60200
H933        H  0.52109956  0.37471632  0.79392710     0.16800
O934        O  0.52208425  0.42271688  0.80398957    -0.60300
H935        H  0.50699491  0.42189928  0.81940865     0.43800
H936        H  0.51480337  0.37344797  0.66534015     0.43700
C937        C  0.42547588  0.49935136  0.74827429    -0.05300
C938        C  0.41268957  0.50060797  0.78093671    -0.32800
C939        C  0.38645132  0.49977458  0.78246075     0.36500
C940        C  0.37230864  0.49758988  0.75097902    -0.05700
C941        C  0.38497983  0.49620819  0.71831870    -0.32700
C942        C  0.41127272  0.49695792  0.71674824     0.36400
H943        H  0.42302085  0.50251888  0.80559339     0.16800
O944        O  0.37488721  0.50166166  0.81489595    -0.60200
H945        H  0.37447555  0.49418931  0.69382537     0.16800
O946        O  0.42279640  0.49463132  0.68432775    -0.60300
H947        H  0.42229851  0.51168477  0.67373484     0.43800
H948        H  0.37190598  0.51989474  0.81840522     0.43700
C949        C  0.44138840  0.81290420  0.87360979    -0.05300
C950        C  0.41660773  0.80594208  0.88143287    -0.32800
C951        C  0.40291819  0.81848404  0.90771146     0.36500
C952        C  0.41418766  0.83809479  0.92733425    -0.05700
C953        C  0.43916625  0.84478838  0.91969515    -0.32700
C954        C  0.45269529  0.83245385  0.89299463     0.36400
H955        H  0.40762591  0.79097559  0.86663123     0.16800
O956        O  0.37850266  0.81144740  0.91371391    -0.60200
H957        H  0.44838199  0.85955905  0.93458646     0.16800
O958        O  0.47736480  0.83872929  0.88735975    -0.60300
H959        H  0.47687661  0.85469997  0.87378799     0.43800
H960        H  0.36832052  0.82183199  0.89720668     0.43700
C961        C  0.56374028  0.81227003  0.63691593    -0.05300
C962        C  0.58605464  0.80209924  0.62315858    -0.32800
C963        C  0.59969520  0.81470053  0.59673616     0.36500
C964        C  0.59082900  0.83777774  0.58288706    -0.05700
C965        C  0.56847784  0.84789263  0.59679381    -0.32700
C966        C  0.55507149  0.83546899  0.62357157     0.36400
H967        H  0.59316402  0.78437895  0.63320597     0.16800
O968        O  0.62142911  0.80397768  0.58435629    -0.60200
H969        H  0.56103798  0.86542923  0.58658904     0.16800
O970        O  0.53272893  0.84548724  0.63495796    -0.60300
H971        H  0.53739273  0.85998820  0.65008767     0.43800
H972        H  0.63482508  0.81009997  0.60047905     0.43700
C973        C  0.50039678  0.58050650  0.75327682    -0.05300
C974        C  0.49743928  0.59298120  0.78596189    -0.32800
C975        C  0.49722385  0.61931629  0.78774675     0.36500
C976        C  0.50020042  0.63367037  0.75652164    -0.05700
C977        C  0.50307496  0.62123033  0.72396850    -0.32700
C978        C  0.50327903  0.59503872  0.72211269     0.36400
H979        H  0.49544057  0.58234316  0.81035025     0.16800
O980        O  0.49544848  0.63074038  0.82031025    -0.60200
H981        H  0.50511793  0.63185362  0.69958158     0.16800
O982        O  0.50639081  0.58396396  0.68951774    -0.60300
H983        H  0.52483302  0.58259736  0.68625881     0.43800
H984        H  0.47756838  0.62910231  0.82730510     0.43700
C985        C  0.15844571  0.41190635  0.08076449    -0.05300
C986        C  0.14578271  0.43084955  0.09962930    -0.32800
C987        C  0.15811500  0.44492291  0.12569372     0.36500
C988        C  0.18365019  0.44024102  0.13327325    -0.05700
C989        C  0.19614066  0.42098497  0.11490969    -0.32700
C990        C  0.18375231  0.40672619  0.08916527     0.36400
H991        H  0.12625469  0.43501211  0.09395688     0.16800
O992        O  0.14512126  0.46356873  0.14285753    -0.60200
H993        H  0.21564430  0.41678668  0.12060719     0.16800
O994        O  0.19692003  0.38840283  0.07156054    -0.60300
H995        H  0.19562162  0.37324864  0.08683461     0.43800
H996        H  0.14663276  0.47857177  0.12733141     0.43700
C997        C  0.18788844  0.55739385  0.37315182    -0.05300
C998        C  0.16427042  0.54889717  0.38455995    -0.32800
C999        C  0.15085926  0.56177306  0.41079565     0.36500
C1000       C  0.16108073  0.58359856  0.42646148    -0.05700
C1001       C  0.18459920  0.59224457  0.41467381    -0.32700
C1002       C  0.19786872  0.57949321  0.38818817     0.36400
H1003       H  0.15621223  0.53194683  0.37347148     0.16800
O1004       O  0.12798656  0.55250430  0.42121813    -0.60200
H1005       H  0.19283271  0.60906655  0.42591698     0.16800
O1006       O  0.22036578  0.58914169  0.37689899    -0.60300
H1007       H  0.21612808  0.60001549  0.35633453     0.43800
H1008       H  0.11560200  0.56034016  0.40490407     0.43700
C1009       C  0.43495598  0.81062343  0.13861608    -0.05300
C1010       C  0.44495589  0.83362579  0.12703948    -0.32800
C1011       C  0.43326549  0.84756874  0.10005282     0.36500
C1012       C  0.41100442  0.83863577  0.08395931    -0.05700
C1013       C  0.40091297  0.81568336  0.09590988    -0.32700
C1014       C  0.41259836  0.80180761  0.12294189     0.36400
H1015       H  0.46216859  0.84073832  0.13863216     0.16800
O1016       O  0.44407750  0.86969751  0.08937179    -0.60200
H1017       H  0.38375900  0.80837979  0.08438580     0.16800
O1018       O  0.40167100  0.77988613  0.13424237    -0.60300
H1019       H  0.38953114  0.78500409  0.15284862     0.43800
H1020       H  0.43716355  0.88267345  0.10557090     0.43700
C1021       C  0.54989210  0.80868585  0.38199442    -0.05300
C1022       C  0.57289238  0.79832640  0.39288355    -0.32800
C1023       C  0.58855115  0.81110502  0.41653493     0.36500
C1024       C  0.58119324  0.83467599  0.43025103    -0.05700
C1025       C  0.55784949  0.84475721  0.41991584    -0.32700
C1026       C  0.54231941  0.83204761  0.39589094     0.36400
H1027       H  0.57913967  0.78043209  0.38239515     0.16800
O1028       O  0.61089600  0.80017718  0.42614904    -0.60200
H1029       H  0.55151993  0.86263537  0.43037827     0.16800
O1030       O  0.51933402  0.84210008  0.38740710    -0.60300
H1031       H  0.52298549  0.85649104  0.37144806     0.43800
H1032       H  0.62296154  0.80504985  0.40728653     0.43700
C1033       C  0.83333071  0.58517148  0.08037560    -0.05300
C1034       C  0.84496900  0.56625070  0.10058999    -0.32800
C1035       C  0.83149159  0.55252944  0.12590130     0.36500
C1036       C  0.80583672  0.55764357  0.13178130    -0.05700
C1037       C  0.79386448  0.57585031  0.11067598    -0.32700
C1038       C  0.80734068  0.58955570  0.08517648     0.36400
H1039       H  0.86474961  0.56215388  0.09705191     0.16800
O1040       O  0.84364573  0.53397040  0.14449174    -0.60200
H1041       H  0.77409368  0.57989593  0.11445204     0.16800
O1042       O  0.79487094  0.60722180  0.06528329    -0.60300
H1043       H  0.78876750  0.59806698  0.04401834     0.43800
H1044       H  0.83944694  0.51814063  0.13194749     0.43700
C1045       C  0.80779509  0.44652330  0.37605941    -0.05300
C1046       C  0.82764392  0.45762255  0.39486259    -0.32800
C1047       C  0.84155173  0.44376752  0.41974528     0.36500
C1048       C  0.83607517  0.41810419  0.42566498    -0.05700
C1049       C  0.81644414  0.40696867  0.40628382    -0.32700
C1050       C  0.80244995  0.42089160  0.38165945     0.36400
H1051       H  0.83201038  0.47730981  0.39088090     0.16800
O1052       O  0.86017019  0.45568908  0.43844554    -0.60200
H1053       H  0.81197543  0.38728143  0.40998767     0.16800
O1054       O  0.78390151  0.40906311  0.36270914    -0.60300
H1055       H  0.79195906  0.40391390  0.34007902     0.43800
H1056       H  0.85187508  0.46207765  0.46025576     0.43700
C1057       C  0.41863784  0.50022145  0.24853141    -0.05300
C1058       C  0.40565382  0.49933366  0.21601238    -0.32800
C1059       C  0.37936316  0.49911612  0.21484274     0.36500
C1060       C  0.36531556  0.49946816  0.24661761    -0.05700
C1061       C  0.37826949  0.50025533  0.27915154    -0.32700
C1062       C  0.40456206  0.50076779  0.28034076     0.36400
H1063       H  0.41588376  0.49897579  0.19114616     0.16800
O1064       O  0.36773256  0.49911143  0.18234315    -0.60200
H1065       H  0.36802297  0.50036816  0.30399387     0.16800
O1066       O  0.41617894  0.50161993  0.31285887    -0.60300
H1067       H  0.41714545  0.51972835  0.31892066     0.43800
H1068       H  0.36549311  0.51709631  0.17616350     0.43700
C1069       C  0.49788226  0.57708767  0.25375158    -0.05300
C1070       C  0.49711248  0.59103339  0.22201967    -0.32800
C1071       C  0.49699846  0.61730161  0.22245302     0.36500
C1072       C  0.49738023  0.63032451  0.25502493    -0.05700
C1073       C  0.49862154  0.61650983  0.28678055    -0.32700
C1074       C  0.49891463  0.59017896  0.28639164     0.36400
H1075       H  0.49662413  0.58159005  0.19654279     0.16800
O1076       O  0.49692834  0.62998978  0.19073064    -0.60200
H1077       H  0.49895492  0.62612807  0.31213233     0.16800
O1078       O  0.49976914  0.57755813  0.31815984    -0.60300
H1079       H  0.51789242  0.57584603  0.32377290     0.43800
H1080       H  0.51487768  0.63323227  0.18533936     0.43700
C1081       C  0.57395584  0.49620899  0.24788953    -0.05300
C1082       C  0.58690526  0.49429033  0.21544273    -0.32800
C1083       C  0.61313920  0.49233394  0.21450074     0.36500
C1084       C  0.62711075  0.49256022  0.24636458    -0.05700
C1085       C  0.61419360  0.49409304  0.27879326    -0.32700
C1086       C  0.58798314  0.49603091  0.27978902     0.36400
H1087       H  0.57668396  0.49406425  0.19054574     0.16800
O1088       O  0.62480862  0.48983137  0.18222709    -0.60200
H1089       H  0.62444580  0.49439844  0.30364880     0.16800
O1090       O  0.57639261  0.49772810  0.31223274    -0.60300
H1091       H  0.57592992  0.51595266  0.31773900     0.43800
H1092       H  0.62554039  0.47147289  0.17781369     0.43700
C1093       C  0.58808670  0.16586527  0.06673302    -0.05300
C1094       C  0.59942152  0.18629288  0.08418314    -0.32800
C1095       C  0.58678960  0.19929649  0.11114800     0.36500
C1096       C  0.56234999  0.19204513  0.12114326    -0.05700
C1097       C  0.55100383  0.17166408  0.10391021    -0.32700
C1098       C  0.56347908  0.15878382  0.07672353     0.36400
H1099       H  0.61832264  0.19204747  0.07731746     0.16800
O1100       O  0.59879795  0.21864719  0.12816718    -0.60200
H1101       H  0.53215740  0.16593528  0.11114115     0.16800
O1102       O  0.55133913  0.13929060  0.06022470    -0.60300
H1103       H  0.54218697  0.14708824  0.04005949     0.43800
H1104       H  0.60673620  0.21089528  0.14936409     0.43700
C1105       C  0.44534921  0.19080146  0.36572290    -0.05300
C1106       C  0.45019783  0.16519043  0.37192041    -0.32800
C1107       C  0.43692568  0.15172602  0.39779820     0.36500
C1108       C  0.41814137  0.16373890  0.41811783    -0.05700
C1109       C  0.41336374  0.18931061  0.41214762    -0.32700
C1110       C  0.42675965  0.20285293  0.38652223     0.36400
H1111       H  0.46439388  0.15538126  0.35671229     0.16800
O1112       O  0.44188610  0.12659012  0.40196390    -0.60200
H1113       H  0.39908966  0.19900401  0.42742502     0.16800
O1114       O  0.42051807  0.22755146  0.38111625    -0.60300
H1115       H  0.42810183  0.23678513  0.40131613     0.43800
H1116       H  0.45683696  0.12579218  0.41766197     0.43700
C1117       C  0.49624098  0.36904170  0.24199654    -0.05300
C1118       C  0.49757616  0.38266288  0.21011576    -0.32800
C1119       C  0.49677530  0.40896945  0.21014912     0.36500
C1120       C  0.49501870  0.42218810  0.24261114    -0.05700
C1121       C  0.49351145  0.40843715  0.27442249    -0.32700
C1122       C  0.49417846  0.38221236  0.27434049     0.36400
H1123       H  0.49905541  0.37288998  0.18496232     0.16800
O1124       O  0.49828546  0.42144934  0.17832560    -0.60200
H1125       H  0.49215182  0.41800463  0.29974570     0.16800
O1126       O  0.49355191  0.36976338  0.30624035    -0.60300
H1127       H  0.51139181  0.36798443  0.31349526     0.43800
H1128       H  0.48078515  0.42212058  0.16924709     0.43700
loop_ 
_geom_bond_atom_site_label_1 
_geom_bond_atom_site_label_2 
_geom_bond_distance 
_geom_bond_site_symmetry_2 
_ccdc_geom_bond_type 
N1            N2   1.319       .  A
N1            C5   1.347       .  A
N1           Cu9   2.085       .  S
N2            C3   1.341       .  A
N2           Cu8   2.056       .  S
C3            C4   1.387       .  A
C3            H6   1.079       .  S
C4            C5   1.393       .  A
C4         C1105   1.492       .  S
C5            H7   1.081       .  S
Cu8          N11   2.056       .  S
Cu9          N19   2.085       .  S
Cu10         N12   2.072       .  S
Cu10         N18   2.074       .  S
N11          N12   1.320       .  A
N11          C15   1.341       .  A
N12          C13   1.345       .  A
C13          C14   1.387       .  A
C13          H16   1.082       .  S
C14          C15   1.383       .  A
C14        C1117   1.479       .  S
C15          H17   1.081       .  S
N18          N19   1.324       .  A
N18          C22   1.345       .  A
N19          C20   1.346       .  A
C20          C21   1.385       .  A
C20          H23   1.082       .  S
C21          C22   1.383       .  A
C21        C1096   1.479       .  S
C22          H24   1.082       .  S
O25         Cu33   2.013       .  S
O25          C35   1.279       .  A
O26         Cu33   2.012       .  S
O26          C36   1.279       .  A
O27         Cu33   2.007       .  S
O27          C37   1.279       .  A
O28         Cu33   2.004       .  S
O28          C38   1.277       .  A
O29         Cu34   2.002       .  S
O29          C38   1.278       .  A
O30         Cu34   2.007       .  S
O30          C37   1.277       .  A
O31         Cu34   2.007       .  S
O31          C36   1.277       .  A
O32         Cu34   2.005       .  S
O32          C35   1.277       .  A
Cu33        Cu34   2.366       .  S
C35        C1081   1.488       .  S
C36        C1057   1.488       .  S
C37        C1069   1.487       .  S
C38        C1120   1.484       .  S
N39          N40   1.321       .  A
N39          C43   1.345       .  A
N39         Cu47   2.076       .  S
N40          C41   1.344       .  A
N40         Cu46   2.070       .  S
C41          C42   1.386       .  A
C41          H44   1.081       .  S
C42          C43   1.388       .  A
C42        C1084   1.485       .  S
C43          H45   1.082       .  S
Cu46         N49   2.071       .  S
Cu47         N57   2.076       .  S
Cu48         N50   2.078       .  S
Cu48         N56   2.078       .  S
N49          N50   1.322       .  A
N49          C53   1.346       .  A
N50          C51   1.343       .  A
C51          C52   1.386       .  A
C51          H54   1.081       .  S
C52          C53   1.386       .  A
C52        C1036   1.484       .  S
C53          H55   1.082       .  S
N56          N57   1.322       .  A
N56          C60   1.347       .  A
N57          C58   1.344       .  A
C58          C59   1.385       .  A
C58          H61   1.082       .  S
C59          C60   1.385       .  A
C59        C1045   1.481       .  S
C60          H62   1.082       .  S
N63          N64   1.321       .  A
N63          C67   1.345       .  A
N63         Cu71   2.072       .  S
N64          C65   1.346       .  A
N64         Cu70   2.080       .  S
C65          C66   1.388       .  A
C65          H68   1.082       .  S
C66          C67   1.386       .  A
C66        C1009   1.485       .  S
C67          H69   1.082       .  S
Cu70         N73   2.080       .  S
Cu71         N81   2.072       .  S
Cu72         N74   2.064       .  S
Cu72         N80   2.064       .  S
N73          N74   1.321       .  A
N73          C77   1.344       .  A
N74          C75   1.345       .  A
C75          C76   1.385       .  A
C75          H78   1.082       .  S
C76          C77   1.386       .  A
C76        C1072   1.482       .  S
C77          H79   1.081       .  S
N80          N81   1.322       .  A
N80          C84   1.342       .  A
N81          C82   1.344       .  A
C82          C83   1.385       .  A
C82          H85   1.081       .  S
C83          C84   1.383       .  A
C83        C1021   1.478       .  S
C84          H86   1.082       .  S
N87          N88   1.321       .  A
N87          C91   1.343       .  A
N87         Cu95   2.061       .  S
N88          C89   1.343       .  A
N88         Cu94   2.076       .  S
C89          C90   1.386       .  A
C89          H92   1.082       .  S
C90          C91   1.384       .  A
C90         C988   1.480       .  S
C91          H93   1.081       .  S
Cu94         N97   2.076       .  S
Cu95        N105   2.061       .  S
Cu96         N98   2.070       .  S
Cu96        N104   2.070       .  S
N97          N98   1.321       .  A
N97         C101   1.345       .  A
N98          C99   1.343       .  A
C99         C100   1.387       .  A
C99         H102   1.082       .  S
C100        C101   1.389       .  A
C100       C1060   1.488       .  S
C101        H103   1.081       .  S
N104        N105   1.320       .  A
N104        C108   1.343       .  A
N105        C106   1.343       .  A
C106        C107   1.385       .  A
C106        H109   1.082       .  S
C107        C108   1.387       .  A
C107        C997   1.481       .  S
C108        H110   1.081       .  S
N111        N112   1.322       .  A
N111        C115   1.345       .  A
N111       Cu119   2.075       .  S
N112        C113   1.343       .  A
N112       Cu118   2.063       .  S
C113        C114   1.382       .  A
C113        H116   1.082       .  S
C114        C115   1.385       .  A
C114        C949   1.475       .  S
C115        H117   1.082       .  S
Cu118       N121   2.063       .  S
Cu119       N129   2.076       .  S
Cu120       N122   2.077       .  S
Cu120       N128   2.077       .  S
N121        N122   1.321       .  A
N121        C125   1.345       .  A
N122        C123   1.343       .  A
C123        C124   1.386       .  A
C123        H126   1.082       .  S
C124        C125   1.384       .  A
C124        C976   1.481       .  S
C125        H127   1.081       .  S
N128        N129   1.322       .  A
N128        C132   1.346       .  A
N129        C130   1.344       .  A
C130        C131   1.386       .  A
C130        H133   1.081       .  S
C131        C132   1.387       .  A
C131        C961   1.485       .  S
C132        H134   1.082       .  S
O135       Cu143   1.996       .  S
O135        C145   1.276       .  A
O136       Cu143   2.001       .  S
O136        C146   1.278       .  A
O137       Cu143   2.007       .  S
O137        C147   1.278       .  A
O138       Cu143   2.012       .  S
O138        C148   1.279       .  A
O139       Cu144   1.998       .  S
O139        C148   1.277       .  A
O140       Cu144   1.998       .  S
O140        C147   1.277       .  A
O141       Cu144   2.014       .  S
O141        C146   1.279       .  A
O142       Cu144   2.011       .  S
O142        C145   1.279       .  A
Cu143      Cu144   2.368       .  S
C145        C913   1.483       .  S
C146        C937   1.487       .  S
C147        C925   1.481       .  S
C148        C973   1.486       .  S
N149        N150   1.322       .  A
N149        C153   1.344       .  A
N149       Cu157   2.072       .  S
N150        C151   1.346       .  A
N150       Cu156   2.078       .  S
C151        C152   1.387       .  A
C151        H154   1.082       .  S
C152        C153   1.384       .  A
C152        C940   1.482       .  S
C153        H155   1.082       .  S
Cu156       N159   2.078       .  S
Cu157       N167   2.073       .  S
Cu158       N160   2.070       .  S
Cu158       N166   2.070       .  S
N159        N160   1.321       .  A
N159        C163   1.345       .  A
N160        C161   1.343       .  A
C161        C162   1.385       .  A
C161        H164   1.082       .  S
C162        C163   1.388       .  A
C162        C889   1.485       .  S
C163        H165   1.081       .  S
N166        N167   1.321       .  A
N166        C170   1.344       .  A
N167        C168   1.344       .  A
C168        C169   1.387       .  A
C168        H171   1.082       .  S
C169        C170   1.386       .  A
C169        C901   1.483       .  S
C170        H172   1.081       .  S
N173        N174   1.321       .  A
N173        C177   1.343       .  A
N173       Cu181   2.073       .  S
N174        C175   1.343       .  A
N174       Cu180   2.073       .  S
C175        C176   1.388       .  A
C175        H178   1.081       .  S
C176        C177   1.387       .  A
C176        C928   1.487       .  S
C177        H179   1.080       .  S
Cu180       N183   2.072       .  S
Cu181       N191   2.073       .  S
Cu182       N184   2.062       .  S
Cu182       N190   2.063       .  S
N183        N184   1.321       .  A
N183        C187   1.344       .  A
N184        C185   1.343       .  A
C185        C186   1.382       .  A
C185        H188   1.081       .  S
C186        C187   1.385       .  A
C186        C868   1.475       .  S
C187        H189   1.082       .  S
N190        N191   1.320       .  A
N190        C194   1.342       .  A
N191        C192   1.345       .  A
C192        C193   1.390       .  A
C192        H195   1.081       .  S
C193        C194   1.386       .  A
C193        C877   1.486       .  S
C194        H196   1.082       .  S
N197        N198   1.321       .  A
N197        C201   1.346       .  A
N197       Cu205   2.080       .  S
N198        C199   1.343       .  A
N198       Cu204   2.067       .  S
C199        C200   1.386       .  A
C199        H202   1.081       .  S
C200        C201   1.388       .  A
C200        C841   1.486       .  S
C201        H203   1.082       .  S
Cu204       N207   2.067       .  S
Cu205       N215   2.080       .  S
Cu206       N208   2.063       .  S
Cu206       N214   2.064       .  S
N207        N208   1.321       .  A
N207        C211   1.344       .  A
N208        C209   1.342       .  A
C209        C210   1.384       .  A
C209        H212   1.081       .  S
C210        C211   1.385       .  A
C210        C916   1.479       .  S
C211        H213   1.082       .  S
N214        N215   1.322       .  A
N214        C218   1.344       .  A
N215        C216   1.345       .  A
C216        C217   1.385       .  A
C216        H219   1.082       .  S
C217        C218   1.383       .  A
C217        C853   1.478       .  S
C218        H220   1.082       .  S
N221        N222   1.322   1_655  A
N221        C225   1.346       .  A
N221       Cu229   2.083       .  S
N222        C223   1.344       .  A
N222       Cu228   2.066       .  S
C223        C224   1.383       .  A
C223        H226   1.082       .  S
C224        C225   1.386   1_455  A
C224        C829   1.481       .  S
C225        H227   1.082       .  S
Cu228       N231   2.066       .  S
Cu229       N239   2.083       .  S
Cu230       N232   2.072       .  S
Cu230       N238   2.073   1_455  S
N231        N232   1.320       .  A
N231        C235   1.343       .  A
N232        C233   1.343       .  A
C233        C234   1.389       .  A
C233        H236   1.081       .  S
C234        C235   1.389       .  A
C234        C805   1.489       .  S
C235        H237   1.080       .  S
N238        N239   1.321       .  A
N238        C242   1.345       .  A
N239        C240   1.346       .  A
C240        C241   1.390       .  A
C240        H243   1.082       .  S
C241        C242   1.388       .  A
C241        C817   1.491       .  S
C242        H244   1.080       .  S
O245       Cu253   2.009       .  S
O245        C255   1.279       .  A
O246       Cu253   2.004   1_545  S
O246        C256   1.278       .  A
O247       Cu253   1.999   1_545  S
O247        C257   1.277       .  A
O248       Cu253   1.997   1_655  S
O248        C258   1.277       .  A
O249       Cu254   2.013   1_665  S
O249        C258   1.278       .  A
O250       Cu254   2.011       .  S
O250        C257   1.279       .  A
O251       Cu254   2.005       .  S
O251        C256   1.277       .  A
O252       Cu254   2.006   1_565  S
O252        C255   1.278       .  A
Cu253      Cu254   2.367   1_565  S
C255        C832   1.487       .  S
C256        C781   1.484       .  S
C257        C793   1.485       .  S
C258        C769   1.484       .  S
N259        N260   1.321       .  A
N259        C263   1.345       .  A
N259       Cu267   2.080   1_545  S
N260        C261   1.344       .  A
N260       Cu266   2.067       .  S
C261        C262   1.385       .  A
C261        H264   1.082       .  S
C262        C263   1.388       .  A
C262        C748   1.484       .  S
C263        H265   1.081       .  S
Cu266       N269   2.067       .  S
Cu267       N277   2.080       .  S
Cu268       N270   2.072       .  S
Cu268       N276   2.072       .  S
N269        N270   1.321   1_545  A
N269        C273   1.344       .  A
N270        C271   1.344       .  A
C271        C272   1.385       .  A
C271        H274   1.082       .  S
C272        C273   1.384   1_565  A
C272        C796   1.479       .  S
C273        H275   1.081       .  S
N276        N277   1.322       .  A
N276        C280   1.343       .  A
N277        C278   1.346       .  A
C278        C279   1.388       .  A
C278        H281   1.081       .  S
C279        C280   1.385       .  A
C279        C757   1.485       .  S
C280        H282   1.082       .  S
N283        N284   1.321       .  A
N283        C287   1.342       .  A
N283       Cu291   2.066       .  S
N284        C285   1.344       .  A
N284       Cu290   2.068       .  S
C285        C286   1.387       .  A
C285        H288   1.081       .  S
C286        C287   1.386       .  A
C286        C721   1.483       .  S
C287        H289   1.082       .  S
Cu290       N293   2.068       .  S
Cu291       N301   2.066   1_655  S
Cu292       N294   2.062       .  S
Cu292       N300   2.062       .  S
N293        N294   1.320   1_655  A
N293        C297   1.342       .  A
N294        C295   1.344       .  A
C295        C296   1.385       .  A
C295        H298   1.082       .  S
C296        C297   1.385   1_455  A
C296        C784   1.479       .  S
C297        H299   1.081       .  S
N300        N301   1.321       .  A
N300        C304   1.342       .  A
N301        C302   1.344       .  A
C302        C303   1.385       .  A
C302        H305   1.082       .  S
C303        C304   1.383       .  A
C303        C736   1.476       .  S
C304        H306   1.081       .  S
N307        N308   1.321       .  A
N307        C311   1.343   1_565  A
N307       Cu315   2.060   1_565  S
N308        C309   1.343       .  A
N308       Cu314   2.076       .  S
C309        C310   1.389       .  A
C309        H312   1.081       .  S
C310        C311   1.385   1_565  A
C310        C772   1.485       .  S
C311        H313   1.082       .  S
Cu314       N317   2.075       .  S
Cu315       N325   2.060       .  S
Cu316       N318   2.064       .  S
Cu316       N324   2.064   1_565  S
N317        N318   1.321       .  A
N317        C321   1.345       .  A
N318        C319   1.342       .  A
C319        C320   1.385       .  A
C319        H322   1.081       .  S
C320        C321   1.388       .  A
C320        C697   1.484       .  S
C321        H323   1.082       .  S
N324        N325   1.321       .  A
N324        C328   1.343       .  A
N325        C326   1.342       .  A
C326        C327   1.381       .  A
C326        H329   1.082       .  S
C327        C328   1.383       .  A
C327        C709   1.471       .  S
C328        H330   1.082       .  S
N331        N332   1.322   1_655  A
N331        C335   1.343       .  A
N331       Cu339   2.069       .  S
N332        C333   1.343       .  A
N332       Cu338   2.067       .  S
C333        C334   1.384   1_455  A
C333        H336   1.081       .  S
C334        C335   1.383       .  A
C334        C685   1.477       .  S
C335        H337   1.082       .  S
Cu338       N341   2.067       .  S
Cu339       N349   2.069       .  S
Cu340       N342   2.062   1_655  S
Cu340       N348   2.062       .  S
N341        N342   1.320       .  A
N341        C345   1.343       .  A
N342        C343   1.342       .  A
C343        C344   1.386       .  A
C343        H346   1.080       .  S
C344        C345   1.387       .  A
C344        C673   1.484       .  S
C345        H347   1.082       .  S
N348        N349   1.319       .  A
N348        C352   1.343       .  A
N349        C350   1.344       .  A
C350        C351   1.389       .  A
C350        H353   1.080       .  S
C351        C352   1.386       .  A
C351        C661   1.486       .  S
C352        H354   1.081       .  S
O355       Cu363   1.999       .  S
O355        C365   1.277       .  A
O356       Cu363   2.000   1_545  S
O356        C366   1.277       .  A
O357       Cu363   2.003       .  S
O357        C367   1.278       .  A
O358       Cu363   2.003   1_455  S
O358        C368   1.277       .  A
O359       Cu364   2.010   1_455  S
O359        C368   1.279       .  A
O360       Cu364   2.008       .  S
O360        C367   1.278       .  A
O361       Cu364   2.004   1_545  S
O361        C366   1.278       .  A
O362       Cu364   2.005       .  S
O362        C365   1.278       .  A
Cu363      Cu364   2.367       .  S
C365        C637   1.482       .  S
C366        C688   1.483       .  S
C367        C649   1.485   1_565  S
C368        C625   1.487       .  S
N369        N370   1.320       .  A
N369        C373   1.346       .  A
N369       Cu377   2.073   1_565  S
N370        C371   1.344       .  A
N370       Cu376   2.078       .  S
C371        C372   1.389       .  A
C371        H374   1.082       .  S
C372        C373   1.390       .  A
C372        C601   1.491       .  S
C373        H375   1.080       .  S
Cu376       N379   2.078       .  S
Cu377       N387   2.072       .  S
Cu378       N380   2.060       .  S
Cu378       N386   2.060       .  S
N379        N380   1.321   1_565  A
N379        C383   1.345       .  A
N380        C381   1.343       .  A
C381        C382   1.384       .  A
C381        H384   1.082       .  S
C382        C383   1.387   1_545  A
C382        C652   1.481       .  S
C383        H385   1.081       .  S
N386        N387   1.320       .  A
N386        C390   1.343       .  A
N387        C388   1.342       .  A
C388        C389   1.388       .  A
C388        H391   1.080       .  S
C389        C390   1.386       .  A
C389        C613   1.485       .  S
C390        H392   1.081       .  S
N393        N394   1.320       .  A
N393        C397   1.345       .  A
N393       Cu401   2.074   1_655  S
N394        C395   1.343       .  A
N394       Cu400   2.065       .  S
C395        C396   1.386       .  A
C395        H398   1.082       .  S
C396        C397   1.390       .  A
C396        C592   1.487       .  S
C397        H399   1.081       .  S
Cu400       N403   2.064       .  S
Cu401       N411   2.074       .  S
Cu402       N404   2.073       .  S
Cu402       N410   2.073       .  S
N403        N404   1.321   1_655  A
N403        C407   1.342       .  A
N404        C405   1.344       .  A
C405        C406   1.386       .  A
C405        H408   1.082       .  S
C406        C407   1.383   1_455  A
C406        C640   1.479   1_455  S
C407        H409   1.081       .  S
N410        N411   1.323       .  A
N410        C414   1.345       .  A
N411        C412   1.343       .  A
C412        C413   1.384       .  A
C412        H415   1.082       .  S
C413        C414   1.384       .  A
C413        C577   1.478       .  S
C414        H416   1.082       .  S
N417        N418   1.320       .  A
N417        C421   1.343       .  A
N417       Cu425   2.059   1_565  S
N418        C419   1.343       .  A
N418       Cu424   2.064       .  S
C419        C420   1.383       .  A
C419        H422   1.081       .  S
C420        C421   1.383       .  A
C420        C565   1.473       .  S
C421        H423   1.082       .  S
Cu424       N427   2.064       .  S
Cu425       N435   2.059       .  S
Cu426       N428   2.076       .  S
Cu426       N434   2.076       .  S
N427        N428   1.321   1_565  A
N427        C431   1.343       .  A
N428        C429   1.345       .  A
C429        C430   1.387   1_545  A
C429        H432   1.082       .  S
C430        C431   1.384       .  A
C430        C628   1.482       .  S
C431        H433   1.081       .  S
N434        N435   1.322       .  A
N434        C438   1.346       .  A
N435        C436   1.341       .  A
C436        C437   1.381       .  A
C436        H439   1.082       .  S
C437        C438   1.386       .  A
C437        C553   1.476       .  S
C438        H440   1.082       .  S
O441       Cu449   1.998   1_556  S
O441        C451   1.277       .  A
O442       Cu449   1.997       .  S
O442        C452   1.277       .  A
O443       Cu449   2.012   1_556  S
O443        C453   1.278       .  A
O444       Cu449   2.007       .  S
O444        C454   1.278       .  A
O445       Cu450   1.999       .  S
O445        C454   1.277       .  A
O446       Cu450   2.000   1_556  S
O446        C453   1.278       .  A
O447       Cu450   2.001       .  S
O447        C452   1.277       .  A
O448       Cu450   2.004   1_556  S
O448        C451   1.278       .  A
Cu449      Cu450   2.369       .  S
C451        C733   1.482       .  S
C452        C985   1.479       .  S
C453        C892   1.485       .  S
C454        C676   1.482       .  S
O455       Cu463   1.993       .  S
O455        C465   1.276       .  A
O456       Cu463   1.996   1_554  S
O456        C466   1.276       .  A
O457       Cu463   2.006       .  S
O457        C467   1.278       .  A
O458       Cu463   2.015   1_554  S
O458        C468   1.279       .  A
O459       Cu464   2.001   1_554  S
O459        C468   1.277       .  A
O460       Cu464   1.998       .  S
O460        C467   1.277       .  A
O461       Cu464   2.003   1_554  S
O461        C466   1.279       .  A
O462       Cu464   2.009       .  S
O462        C465   1.278       .  A
Cu463      Cu464   2.368       .  S
C465        C865   1.483       .  S
C466        C616   1.477       .  S
C467        C712   1.482       .  S
C468       C1093   1.487       .  S
O469       Cu477   2.017       .  S
O469        C479   1.280       .  A
O470       Cu477   2.020   1_556  S
O470        C480   1.280       .  A
O471       Cu477   2.004       .  S
O471        C481   1.278       .  A
O472       Cu477   2.002   1_556  S
O472        C482   1.276       .  A
O473       Cu478   2.012   1_556  S
O473        C482   1.280       .  A
O474       Cu478   2.020       .  S
O474        C481   1.279       .  A
O475       Cu478   2.009   1_556  S
O475        C480   1.278       .  A
O476       Cu478   2.010       .  S
O476        C479   1.277       .  A
Cu477      Cu478   2.366       .  S
C479       C1033   1.487       .  S
C480        C820   1.492       .  S
C481        C589   1.490       .  S
C482        C844   1.487       .  S
O483       Cu491   2.003   1_556  S
O483        C493   1.277       .  A
O484       Cu491   2.003       .  S
O484        C494   1.278       .  A
O485       Cu491   2.002   1_556  S
O485        C495   1.277       .  A
O486       Cu491   2.007       .  S
O486        C496   1.278       .  A
O487       Cu492   2.022       .  S
O487        C496   1.280       .  A
O488       Cu492   2.020   1_556  S
O488        C495   1.280       .  A
O489       Cu492   2.004       .  S
O489        C494   1.277       .  A
O490       Cu492   2.005   1_556  S
O490        C493   1.278       .  A
Cu491      Cu492   2.367       .  S
C493        C952   1.483       .  S
C494        C568   1.482       .  S
C495        C760   1.490       .  S
C496       C1012   1.492       .  S
O497       Cu505   2.010       .  S
O497        C507   1.278       .  A
O498       Cu505   2.005       .  S
O498        C508   1.278       .  A
O499       Cu505   2.014       .  S
O499        C509   1.279       .  A
O500       Cu505   2.012       .  S
O500        C510   1.279       .  A
O501       Cu506   2.001       .  S
O501        C510   1.277       .  A
O502       Cu506   2.003       .  S
O502        C509   1.277       .  A
O503       Cu506   2.000       .  S
O503        C508   1.277       .  A
O504       Cu506   2.000       .  S
O504        C507   1.278       .  A
Cu505      Cu506   2.367       .  S
C507        C808   1.482       .  S
C508       C1000   1.484       .  S
C509        C904   1.488       .  S
C510        C580   1.486       .  S
O511       Cu519   1.998       .  S
O511        C521   1.277       .  A
O512       Cu519   1.996       .  S
O512        C522   1.276       .  A
O513       Cu519   2.013       .  S
O513        C523   1.279       .  A
O514       Cu519   2.006       .  S
O514        C524   1.278       .  A
O515       Cu520   1.999       .  S
O515        C524   1.277       .  A
O516       Cu520   2.002       .  S
O516        C523   1.277       .  A
O517       Cu520   2.018       .  S
O517        C522   1.280       .  A
O518       Cu520   2.023       .  S
O518        C521   1.280       .  A
Cu519      Cu520   2.367       .  S
C521        C745   1.489       .  S
C522       C1108   1.484       .  S
C523        C880   1.487       .  S
C524        C556   1.483       .  S
O525       Cu533   2.005       .  S
O525        C535   1.277       .  A
O526       Cu533   2.007       .  S
O526        C536   1.277       .  A
O527       Cu533   2.012       .  S
O527        C537   1.279       .  A
O528       Cu533   2.015       .  S
O528        C538   1.279       .  A
O529       Cu534   1.998       .  S
O529        C538   1.277       .  A
O530       Cu534   2.002       .  S
O530        C537   1.277       .  A
O531       Cu534   2.013       .  S
O531        C536   1.279       .  A
O532       Cu534   2.008       .  S
O532        C535   1.278       .  A
Cu533      Cu534   2.367       .  S
C535        C724   1.485       .  S
C536       C1048   1.487       .  S
C537        C856   1.487       .  S
C538        C664   1.484       .  S
O539       Cu547   2.001       .  S
O539        C549   1.278       .  A
O540       Cu547   1.999       .  S
O540        C550   1.277       .  A
O541       Cu547   2.011       .  S
O541        C551   1.279       .  A
O542       Cu547   2.012       .  S
O542        C552   1.279       .  A
O543       Cu548   2.016       .  S
O543        C552   1.279       .  A
O544       Cu548   2.015       .  S
O544        C551   1.278       .  A
O545       Cu548   2.004       .  S
O545        C550   1.278       .  A
O546       Cu548   2.008       .  S
O546        C549   1.278       .  A
Cu547      Cu548   2.366       .  S
C549        C700   1.485       .  S
C550       C1024   1.483       .  S
C551        C964   1.491       .  S
C552        C604   1.491       .  S
C553        C554   1.402       .  A
C553        C558   1.407       .  A
C554        C555   1.397       .  A
C554        H559   1.083       .  S
C555        C556   1.412       .  A
C555        O560   1.371       .  S
C556        C557   1.408       .  A
C557        C558   1.399       .  A
C557        H561   1.083       .  S
C558        O562   1.371       .  S
O560        H564   0.992       .  S
O562        H563   0.993       .  S
C565        C566   1.401       .  A
C565        C570   1.406       .  A
C566        C567   1.399       .  A
C566        H571   1.084       .  S
C567        C568   1.413       .  A
C567        O572   1.372       .  S
C568        C569   1.406       .  A
C569        C570   1.398       .  A
C569        H573   1.083       .  S
C570        O574   1.372       .  S
O572        H576   0.991       .  S
O574        H575   0.992       .  S
C577        C578   1.402       .  A
C577        C582   1.408       .  A
C578        C579   1.400       .  A
C578        H583   1.083       .  S
C579        C580   1.415       .  A
C579        O584   1.372       .  S
C580        C581   1.406       .  A
C581        C582   1.398       .  A
C581        H585   1.083       .  S
C582        O586   1.371       .  S
O584        H588   0.992       .  S
O586        H587   0.991       .  S
C589        C590   1.407       .  A
C589        C594   1.412       .  A
C590        C591   1.399       .  A
C590        H595   1.083       .  S
C591        C592   1.410       .  A
C591        O596   1.371       .  S
C592        C593   1.406       .  A
C593        C594   1.401       .  A
C593        H597   1.083       .  S
C594        O598   1.371       .  S
O596        H600   0.991       .  S
O598        H599   0.992       .  S
C601        C602   1.406       .  A
C601        C606   1.411       .  A
C602        C603   1.401       .  A
C602        H607   1.083       .  S
C603        C604   1.412       .  A
C603        O608   1.371       .  S
C604        C605   1.407       .  A
C605        C606   1.402       .  A
C605        H609   1.083       .  S
C606        O610   1.371       .  S
O608        H612   0.992       .  S
O610        H611   0.991       .  S
C613        C614   1.407       .  A
C613        C618   1.412       .  A
C614        C615   1.399       .  A
C614        H619   1.082       .  S
C615        C616   1.410       .  A
C615        O620   1.372       .  S
C616        C617   1.402       .  A
C617        C618   1.395       .  A
C617        H621   1.084       .  S
C618        O622   1.370       .  S
O620        H624   0.992       .  S
O622        H623   0.991       .  S
C625        C626   1.406       .  A
C625        C630   1.414       .  A
C626        C627   1.400       .  A
C626        H631   1.083       .  S
C627        C628   1.410       .  A
C627        O632   1.372       .  S
C628        C629   1.403       .  A
C629        C630   1.400       .  A
C629        H633   1.083       .  S
C630        O634   1.371       .  S
O632        H636   0.992       .  S
O634        H635   0.996       .  S
C637        C638   1.405       .  A
C637        C642   1.412   1_655  A
C638        C639   1.399       .  A
C638        H643   1.083       .  S
C639        C640   1.410       .  A
C639        O644   1.371       .  S
C640        C641   1.402   1_655  A
C641        C642   1.397       .  A
C641        H645   1.083       .  S
C642        O646   1.372       .  S
O644        H648   0.991   1_655  S
O646        H647   0.992       .  S
C649        C650   1.407   1_545  A
C649        C654   1.412       .  A
C650        C651   1.399   1_565  A
C650        H655   1.083       .  S
C651        C652   1.409       .  A
C651        O656   1.371   1_545  S
C652        C653   1.404       .  A
C653        C654   1.399       .  A
C653        H657   1.083       .  S
C654        O658   1.371       .  S
O656        H660   0.991   1_565  S
O658        H659   0.992       .  S
C661        C662   1.407       .  A
C661        C666   1.411       .  A
C662        C663   1.401       .  A
C662        H667   1.082       .  S
C663        C664   1.410       .  A
C663        O668   1.372       .  S
C664        C665   1.405       .  A
C665        C666   1.397       .  A
C665        H669   1.083       .  S
C666        O670   1.371       .  S
O668        H672   0.992       .  S
O670        H671   0.992       .  S
C673        C674   1.404       .  A
C673        C678   1.412       .  A
C674        C675   1.397       .  A
C674        H679   1.083       .  S
C675        C676   1.411       .  A
C675        O680   1.372       .  S
C676        C677   1.404       .  A
C677        C678   1.398       .  A
C677        H681   1.083       .  S
C678        O682   1.371       .  S
O680        H684   0.992       .  S
O682        H683   0.992       .  S
C685        C686   1.402       .  A
C685        C690   1.407       .  A
C686        C687   1.398       .  A
C686        H691   1.083       .  S
C687        C688   1.413       .  A
C687        O692   1.372       .  S
C688        C689   1.406       .  A
C689        C690   1.399       .  A
C689        H693   1.083       .  S
C690        O694   1.372       .  S
O692        H696   0.992   1_655  S
O694        H695   0.991   1_655  S
C697        C698   1.404       .  A
C697        C702   1.411       .  A
C698        C699   1.400       .  A
C698        H703   1.083       .  S
C699        C700   1.412       .  A
C699        O704   1.371       .  S
C700        C701   1.405       .  A
C701        C702   1.397       .  A
C701        H705   1.083       .  S
C702        O706   1.371       .  S
O704        H708   0.992       .  S
O706        H707   0.992       .  S
C709        C710   1.401       .  A
C709        C714   1.406       .  A
C710        C711   1.398       .  A
C710        H715   1.084       .  S
C711        C712   1.413       .  A
C711        O716   1.371       .  S
C712        C713   1.407       .  A
C713        C714   1.397       .  A
C713        H717   1.083       .  S
C714        O718   1.372       .  S
O716        H720   0.992       .  S
O718        H719   0.992       .  S
C721        C722   1.404       .  A
C721        C726   1.410       .  A
C722        C723   1.398       .  A
C722        H727   1.083       .  S
C723        C724   1.412       .  A
C723        O728   1.372       .  S
C724        C725   1.406       .  A
C725        C726   1.400       .  A
C725        H729   1.083       .  S
C726        O730   1.371       .  S
O728        H732   0.992       .  S
O730        H731   0.992       .  S
C733        C734   1.406       .  A
C733        C738   1.413       .  A
C734        C735   1.397       .  A
C734        H739   1.083       .  S
C735        C736   1.409       .  A
C735        O740   1.371       .  S
C736        C737   1.402       .  A
C737        C738   1.397       .  A
C737        H741   1.083       .  S
C738        O742   1.372       .  S
O740        H744   0.992       .  S
O742        H743   0.991       .  S
C745        C746   1.408       .  A
C745        C750   1.412       .  A
C746        C747   1.398       .  A
C746        H751   1.083       .  S
C747        C748   1.408       .  A
C747        O752   1.371       .  S
C748        C749   1.406       .  A
C749        C750   1.403       .  A
C749        H753   1.083       .  S
C750        O754   1.371       .  S
O752        H756   0.992       .  S
O754        H755   0.992       .  S
C757        C758   1.403       .  A
C757        C762   1.410       .  A
C758        C759   1.398       .  A
C758        H763   1.083       .  S
C759        C760   1.414       .  A
C759        O764   1.372       .  S
C760        C761   1.407       .  A
C761        C762   1.404       .  A
C761        H765   1.083       .  S
C762        O766   1.372       .  S
O764        H768   0.992       .  S
O766        H767   0.991       .  S
C769        C770   1.405       .  A
C769        C774   1.411   1_565  A
C770        C771   1.396       .  A
C770        H775   1.083       .  S
C771        C772   1.410       .  A
C771        O776   1.371       .  S
C772        C773   1.406       .  A
C773        C774   1.402   1_565  A
C773        H777   1.083   1_565  S
C774        O778   1.372       .  S
O776        H780   0.992   1_565  S
O778        H779   0.992   1_545  S
C781        C782   1.405   1_455  A
C781        C786   1.413       .  A
C782        C783   1.396       .  A
C782        H787   1.083       .  S
C783        C784   1.409   1_655  A
C783        O788   1.371       .  S
C784        C785   1.404       .  A
C785        C786   1.400       .  A
C785        H789   1.083       .  S
C786        O790   1.372       .  S
O788        H792   0.991   1_655  S
O790        H791   0.992       .  S
C793        C794   1.407       .  A
C793        C798   1.412       .  A
C794        C795   1.400       .  A
C794        H799   1.083       .  S
C795        C796   1.408   1_545  A
C795        O800   1.372   1_545  S
C796        C797   1.403       .  A
C797        C798   1.399   1_565  A
C797        H801   1.083       .  S
C798        O802   1.371       .  S
O800        H804   0.992   1_565  S
O802        H803   0.992       .  S
C805        C806   1.408       .  A
C805        C810   1.413       .  A
C806        C807   1.400       .  A
C806        H811   1.082       .  S
C807        C808   1.409       .  A
C807        O812   1.372       .  S
C808        C809   1.404       .  A
C809        C810   1.398       .  A
C809        H813   1.084       .  S
C810        O814   1.370       .  S
O812        H816   0.992       .  S
O814        H815   0.992       .  S
C817        C818   1.405       .  A
C817        C822   1.413       .  A
C818        C819   1.401       .  A
C818        H823   1.083       .  S
C819        C820   1.414       .  A
C819        O824   1.371       .  S
C820        C821   1.406       .  A
C821        C822   1.403       .  A
C821        H825   1.083       .  S
C822        O826   1.371       .  S
O824        H828   0.992       .  S
O826        H827   0.992       .  S
C829        C830   1.402       .  A
C829        C834   1.409       .  A
C830        C831   1.400       .  A
C830        H835   1.083   1_455  S
C831        C832   1.414       .  A
C831        O836   1.371   1_455  S
C832        C833   1.407       .  A
C833        C834   1.400       .  A
C833        H837   1.083       .  S
C834        O838   1.371       .  S
O836        H840   0.992       .  S
O838        H839   0.991   1_455  S
C841        C842   1.404       .  A
C841        C846   1.411       .  A
C842        C843   1.401       .  A
C842        H847   1.083       .  S
C843        C844   1.414       .  A
C843        O848   1.372       .  S
C844        C845   1.405       .  A
C845        C846   1.398       .  A
C845        H849   1.083       .  S
C846        O850   1.371       .  S
O848        H852   0.992       .  S
O850        H851   0.992       .  S
C853        C854   1.402       .  A
C853        C858   1.408       .  A
C854        C855   1.400       .  A
C854        H859   1.083       .  S
C855        C856   1.413       .  A
C855        O860   1.371       .  S
C856        C857   1.408       .  A
C857        C858   1.399       .  A
C857        H861   1.083       .  S
C858        O862   1.372       .  S
O860        H864   0.992       .  S
O862        H863   0.992       .  S
C865        C866   1.407       .  A
C865        C870   1.414       .  A
C866        C867   1.401       .  A
C866        H871   1.083       .  S
C867        C868   1.409       .  A
C867        O872   1.372       .  S
C868        C869   1.400       .  A
C869        C870   1.396       .  A
C869        H873   1.084       .  S
C870        O874   1.371       .  S
O872        H876   0.991       .  S
O874        H875   0.992       .  S
C877        C878   1.406       .  A
C877        C882   1.411       .  A
C878        C879   1.400       .  A
C878        H883   1.083       .  S
C879        C880   1.411       .  A
C879        O884   1.371       .  S
C880        C881   1.407       .  A
C881        C882   1.399       .  A
C881        H885   1.083       .  S
C882        O886   1.371       .  S
O884        H888   0.992       .  S
O886        H887   0.991       .  S
C889        C890   1.405       .  A
C889        C894   1.410       .  A
C890        C891   1.400       .  A
C890        H895   1.083       .  S
C891        C892   1.412       .  A
C891        O896   1.372       .  S
C892        C893   1.406       .  A
C893        C894   1.399       .  A
C893        H897   1.083       .  S
C894        O898   1.371       .  S
O896        H900   0.992       .  S
O898        H899   0.991       .  S
C901        C902   1.403       .  A
C901        C906   1.410       .  A
C902        C903   1.398       .  A
C902        H907   1.083       .  S
C903        C904   1.414       .  A
C903        O908   1.371       .  S
C904        C905   1.407       .  A
C905        C906   1.401       .  A
C905        H909   1.083       .  S
C906        O910   1.371       .  S
O908        H912   0.992       .  S
O910        H911   0.992       .  S
C913        C914   1.405       .  A
C913        C918   1.413       .  A
C914        C915   1.398       .  A
C914        H919   1.083       .  S
C915        C916   1.409       .  A
C915        O920   1.371       .  S
C916        C917   1.403       .  A
C917        C918   1.398       .  A
C917        H921   1.083       .  S
C918        O922   1.372       .  S
O920        H924   0.992       .  S
O922        H923   0.992       .  S
C925        C926   1.405       .  A
C925        C930   1.410       .  A
C926        C927   1.399       .  A
C926        H931   1.084       .  S
C927        C928   1.413       .  A
C927        O932   1.371       .  S
C928        C929   1.405       .  A
C929        C930   1.398       .  A
C929        H933   1.082       .  S
C930        O934   1.372       .  S
O932        H936   0.992       .  S
O934        H935   0.992       .  S
C937        C938   1.407       .  A
C937        C942   1.412       .  A
C938        C939   1.399       .  A
C938        H943   1.083       .  S
C939        C940   1.408       .  A
C939        O944   1.371       .  S
C940        C941   1.404       .  A
C941        C942   1.401       .  A
C941        H945   1.083       .  S
C942        O946   1.372       .  S
O944        H948   0.992       .  S
O946        H947   0.991       .  S
C949        C950   1.402       .  A
C949        C954   1.407       .  A
C950        C951   1.398       .  A
C950        H955   1.084       .  S
C951        C952   1.413       .  A
C951        O956   1.372       .  S
C952        C953   1.407       .  A
C953        C954   1.400       .  A
C953        H957   1.083       .  S
C954        O958   1.372       .  S
O956        H960   0.992       .  S
O958        H959   0.991       .  S
C961        C962   1.404       .  A
C961        C966   1.409       .  A
C962        C963   1.402       .  A
C962        H967   1.083       .  S
C963        C964   1.414       .  A
C963        O968   1.371       .  S
C964        C965   1.407       .  A
C965        C966   1.401       .  A
C965        H969   1.083       .  S
C966        O970   1.372       .  S
O968        H972   0.991       .  S
O970        H971   0.991       .  S
C973        C974   1.407       .  A
C973        C978   1.413       .  A
C974        C975   1.403       .  A
C974        H979   1.083       .  S
C975        C976   1.410       .  A
C975        O980   1.372       .  S
C976        C977   1.401       .  A
C977        C978   1.395       .  A
C977        H981   1.083       .  S
C978        O982   1.371       .  S
O980        H984   0.992       .  S
O982        H983   0.992       .  S
C985        C986   1.405       .  A
C985        C990   1.410       .  A
C986        C987   1.398       .  A
C986        H991   1.084       .  S
C987        C988   1.410       .  A
C987        O992   1.371       .  S
C988        C989   1.403       .  A
C989        C990   1.397       .  A
C989        H993   1.083       .  S
C990        O994   1.371       .  S
O992        H996   0.992       .  S
O994        H995   0.992       .  S
C997        C998   1.404       .  A
C997       C1002   1.410       .  A
C998        C999   1.398       .  A
C998       H1003   1.083       .  S
C999       C1000   1.412       .  A
C999       O1004   1.371       .  S
C1000      C1001   1.406       .  A
C1001      C1002   1.398       .  A
C1001      H1005   1.083       .  S
C1002      O1006   1.371       .  S
O1004      H1008   0.992       .  S
O1006      H1007   0.992       .  S
C1009      C1010   1.404       .  A
C1009      C1014   1.409       .  A
C1010      C1011   1.402       .  A
C1010      H1015   1.083       .  S
C1011      C1012   1.413       .  A
C1011      O1016   1.371       .  S
C1012      C1013   1.408       .  A
C1013      C1014   1.401       .  A
C1013      H1017   1.083       .  S
C1014      O1018   1.371       .  S
O1016      H1020   0.992       .  S
O1018      H1019   0.991       .  S
C1021      C1022   1.403       .  A
C1021      C1026   1.408       .  A
C1022      C1023   1.397       .  A
C1022      H1027   1.083       .  S
C1023      C1024   1.412       .  A
C1023      O1028   1.372       .  S
C1024      C1025   1.407       .  A
C1025      C1026   1.400       .  A
C1025      H1029   1.083       .  S
C1026      O1030   1.372       .  S
O1028      H1032   0.992       .  S
O1030      H1031   0.992       .  S
C1033      C1034   1.405       .  A
C1033      C1038   1.414       .  A
C1034      C1035   1.399       .  A
C1034      H1039   1.083       .  S
C1035      C1036   1.410       .  A
C1035      O1040   1.371       .  S
C1036      C1037   1.404       .  A
C1037      C1038   1.403       .  A
C1037      H1041   1.083       .  S
C1038      O1042   1.372       .  S
O1040      H1044   0.992       .  S
O1042      H1043   0.992       .  S
C1045      C1046   1.402       .  A
C1045      C1050   1.409       .  A
C1046      C1047   1.402       .  A
C1046      H1051   1.084       .  S
C1047      C1048   1.414       .  A
C1047      O1052   1.371       .  S
C1048      C1049   1.406       .  A
C1049      C1050   1.400       .  A
C1049      H1053   1.083       .  S
C1050      O1054   1.371       .  S
O1052      H1056   0.992       .  S
O1054      H1055   0.992       .  S
C1057      C1058   1.406       .  A
C1057      C1062   1.413       .  A
C1058      C1059   1.400       .  A
C1058      H1063   1.083       .  S
C1059      C1060   1.411       .  A
C1059      O1064   1.371       .  S
C1060      C1061   1.406       .  A
C1061      C1062   1.400       .  A
C1061      H1065   1.083       .  S
C1062      O1066   1.372       .  S
O1064      H1068   0.992       .  S
O1066      H1067   0.992       .  S
C1069      C1070   1.406       .  A
C1069      C1074   1.414       .  A
C1070      C1071   1.398       .  A
C1070      H1075   1.083       .  S
C1071      C1072   1.409       .  A
C1071      O1076   1.371       .  S
C1072      C1073   1.404       .  A
C1073      C1074   1.401       .  A
C1073      H1077   1.083       .  S
C1074      O1078   1.372       .  S
O1076      H1080   0.992       .  S
O1078      H1079   0.991       .  S
C1081      C1082   1.406       .  A
C1081      C1086   1.413       .  A
C1082      C1083   1.401       .  A
C1082      H1087   1.083       .  S
C1083      C1084   1.411       .  A
C1083      O1088   1.371       .  S
C1084      C1085   1.404       .  A
C1085      C1086   1.399       .  A
C1085      H1089   1.083       .  S
C1086      O1090   1.371       .  S
O1088      H1092   0.992       .  S
O1090      H1091   0.992       .  S
C1093      C1094   1.407       .  A
C1093      C1098   1.414       .  A
C1094      C1095   1.401       .  A
C1094      H1099   1.083       .  S
C1095      C1096   1.409       .  A
C1095      O1100   1.371       .  S
C1096      C1097   1.401       .  A
C1097      C1098   1.399       .  A
C1097      H1101   1.084       .  S
C1098      O1102   1.371       .  S
O1100      H1104   0.992       .  S
O1102      H1103   0.992       .  S
C1105      C1106   1.406       .  A
C1105      C1110   1.415       .  A
C1106      C1107   1.401       .  A
C1106      H1111   1.082       .  S
C1107      C1108   1.412       .  A
C1107      O1112   1.372       .  S
C1108      C1109   1.402       .  A
C1109      C1110   1.400       .  A
C1109      H1113   1.084       .  S
C1110      O1114   1.370       .  S
O1112      H1116   0.992       .  S
O1114      H1115   0.991       .  S
C1117      C1118   1.403       .  A
C1117      C1122   1.409       .  A
C1118      C1119   1.400       .  A
C1118      H1123   1.083       .  S
C1119      C1120   1.413       .  A
C1119      O1124   1.371       .  S
C1120      C1121   1.405       .  A
C1121      C1122   1.396       .  A
C1121      H1125   1.083       .  S
C1122      O1126   1.371       .  S
O1124      H1128   0.993       .  S
O1126      H1127   0.992       .  S
