geometry optimzed in LAMMPS
_audit_creation_date              2020-11-30 
_audit_creation_method            'lammps2cif' 
_symmetry_space_group_name_H-M    'P1' 
_symmetry_Int_Tables_number       1 
_symmetry_cell_setting            triclinic 
loop_ 
_symmetry_equiv_pos_as_xyz 
  x,y,z 
_cell_length_a                    58.15568369 
_cell_length_b                    58.20142229290121 
_cell_length_c                    39.968121199020175 
_cell_angle_alpha                 89.98714137310542 
_cell_angle_beta                  90.03661480179204 
_cell_angle_gamma                 89.98672187980046 
loop_ 
_atom_site_label 
_atom_site_type_symbol 
_atom_site_fract_x 
_atom_site_fract_y 
_atom_site_fract_z 
_atom_site_charge 
C1          C  0.49857762  0.27884991  0.24986126     0.03400
C2          C  0.50961734  0.26658098  0.22431837    -0.12700
C3          C  0.50932786  0.24244337  0.22412372     0.00900
C4          C  0.49714284  0.23072083  0.24926818    -0.11300
C5          C  0.48624014  0.24290152  0.27504029     0.03400
C6          C  0.48716698  0.26693172  0.27536738    -0.10700
H7          H  0.51881330  0.27586756  0.20499909     0.09000
H8          H  0.49617217  0.21212984  0.24891598     0.06500
H9          H  0.47843243  0.27638011  0.29498004     0.06400
N10         N  0.52015430  0.53534537  0.25393045    -0.36300
N11         N  0.52014916  0.48551680  0.25175253    -0.56900
N12         N  0.47033983  0.48576787  0.25438795    -0.36300
N13         N  0.47029264  0.53571398  0.25299720    -0.56900
C14         C  0.54236274  0.53102704  0.24613867     0.27300
C15         C  0.51599173  0.55755948  0.24605925     0.27300
C16         C  0.47431563  0.46353363  0.24640137     0.27200
C17         C  0.44791311  0.49002177  0.24799833     0.27200
C18         C  0.54272447  0.48912690  0.25759560     0.35900
C19         C  0.51643263  0.46289213  0.25683742     0.35900
C20         C  0.47412485  0.55832573  0.25829338     0.35900
C21         C  0.44776181  0.53205512  0.25927150     0.35900
C22         C  0.55246690  0.55070087  0.23327787    -0.21600
C23         C  0.53577881  0.56744415  0.23309396    -0.21600
C24         C  0.45415413  0.45351684  0.23496406    -0.21600
C25         C  0.43746286  0.47023116  0.23605095    -0.21600
C26         C  0.55344402  0.46870872  0.26629274    -0.22700
C27         C  0.53675218  0.45204529  0.26579148    -0.22700
C28         C  0.45390371  0.56911891  0.26778092    -0.22700
C29         C  0.43717291  0.55245412  0.26836162    -0.22700
C30         C  0.55407556  0.51020937  0.25229548    -0.18000
C31         C  0.49530773  0.56953447  0.25249058    -0.18000
C32         C  0.43634087  0.51089056  0.25452394    -0.18000
C33         C  0.49527681  0.45168790  0.25118769    -0.18000
H34         H  0.57008264  0.55281483  0.22511320     0.14900
H35         H  0.53804896  0.58500223  0.22480205     0.14900
H36         H  0.45166020  0.43591880  0.22699758     0.14900
H37         H  0.41961652  0.46801073  0.22905793     0.14900
H38         H  0.57147221  0.46603301  0.27180332     0.13200
H39         H  0.53933615  0.43397809  0.27100107     0.13200
H40         H  0.45140620  0.58714474  0.27334693     0.13200
H41         H  0.41922444  0.55509396  0.27439693     0.13200
H42         H  0.50938895  0.52463082  0.26761941     0.26400
H43         H  0.48151125  0.49660316  0.26713554     0.26400
C44         C  0.72722766  0.51147928  0.25238953     0.03400
C45         C  0.73908142  0.49834676  0.27624867    -0.12700
C46         C  0.76322154  0.49867587  0.27757943     0.00900
C47         C  0.77541717  0.51166016  0.25380305    -0.11300
C48         C  0.76368937  0.52451780  0.22953122     0.03400
C49         C  0.73960934  0.52465138  0.22919699    -0.10700
H50         H  0.72944774  0.48791719  0.29378679     0.09000
H51         H  0.79404934  0.51195355  0.25428053     0.06500
H52         H  0.73053109  0.53450521  0.21033698     0.06400
C53         C  0.50211232  0.74300776  0.25051602     0.03400
C54         C  0.51400452  0.75499108  0.27567056    -0.12700
C55         C  0.51378122  0.77914339  0.27649899     0.00900
C56         C  0.50144778  0.79124758  0.25193553    -0.11300
C57         C  0.48969734  0.77946454  0.22654308     0.03400
C58         C  0.49017490  0.75539447  0.22588304    -0.10700
H59         H  0.52283386  0.74552274  0.29517579     0.09000
H60         H  0.50127810  0.80986734  0.25227153     0.06500
H61         H  0.48097250  0.74627796  0.20637962     0.06400
C62         C  0.26321735  0.50606078  0.24911683     0.03400
C63         C  0.25059367  0.51822222  0.27314286    -0.12700
C64         C  0.22649720  0.51805865  0.27270521     0.00900
C65         C  0.21496970  0.50575344  0.24752243    -0.11300
C66         C  0.22733200  0.49316650  0.22340396     0.03400
C67         C  0.25152786  0.49337991  0.22452953    -0.10700
H68         H  0.25959065  0.52751660  0.29266964     0.09000
H69         H  0.19637074  0.50634539  0.24640604     0.06500
H70         H  0.26130688  0.48378100  0.20617448     0.06400
C71         C  0.50437002  0.73946102  0.75894993     0.03400
C72         C  0.51635555  0.75149858  0.73382934    -0.12700
C73         C  0.51428795  0.77549228  0.73065036     0.00900
C74         C  0.50077034  0.78753238  0.75389700    -0.11300
C75         C  0.49000375  0.77616194  0.78066430     0.03400
C76         C  0.49165457  0.75207468  0.78262877    -0.10700
H77         H  0.52747137  0.74220287  0.71685755     0.09000
H78         H  0.49838761  0.80585837  0.75079567     0.06500
H79         H  0.48283297  0.74308235  0.80254466     0.06400
N80         N  0.47796451  0.48122381  0.74790385    -0.36300
N81         N  0.52764347  0.48156351  0.74297620    -0.56900
N82         N  0.52731555  0.53108843  0.75431888    -0.36300
N83         N  0.47749690  0.53080403  0.75604698    -0.56900
C84         C  0.48201352  0.46001394  0.73545372     0.27300
C85         C  0.45554200  0.48596632  0.74219892     0.27300
C86         C  0.54954914  0.52785554  0.74531885     0.27200
C87         C  0.52282260  0.55390382  0.75185272     0.27200
C88         C  0.52413773  0.45860195  0.74463213     0.35900
C89         C  0.55041618  0.48495801  0.74764790     0.35900
C90         C  0.45523276  0.52612071  0.76287326     0.35900
C91         C  0.48126058  0.55261188  0.76626506     0.35900
C92         C  0.46200155  0.45124486  0.72155238    -0.21600
C93         C  0.44525389  0.46763068  0.72588397    -0.21600
C94         C  0.55934698  0.54896151  0.73763852    -0.21600
C95         C  0.54243028  0.56524946  0.74113293    -0.21600
C96         C  0.54477339  0.44735247  0.75022275    -0.22700
C97         C  0.56144451  0.46396191  0.75149523    -0.22700
C98         C  0.44477793  0.54498674  0.77751186    -0.22700
C99         C  0.46129747  0.56176436  0.77977035    -0.22700
C100        C  0.50277858  0.44766254  0.73888303    -0.18000
C101        C  0.44382352  0.50572263  0.75348446    -0.18000
C102        C  0.50194722  0.56488853  0.76104165    -0.18000
C103        C  0.56154841  0.50660179  0.74623274    -0.18000
H104        H  0.45963192  0.43459924  0.70998088     0.14900
H105        H  0.42745192  0.46608969  0.71829502     0.14900
H106        H  0.57690524  0.55257729  0.73057087     0.14900
H107        H  0.54457018  0.58348084  0.73686110     0.14900
H108        H  0.54768894  0.42906694  0.75258573     0.13200
H109        H  0.57962834  0.46072590  0.75458244     0.13200
H110        H  0.42703764  0.54658558  0.78534688     0.13200
H111        H  0.45879920  0.57884086  0.78983811     0.13200
H112        H  0.48896819  0.49055675  0.76318019     0.26400
H113        H  0.51675489  0.51888058  0.76515933     0.26400
C114        C  0.27011746  0.50488622  0.75132893     0.03400
C115        C  0.25871580  0.51715614  0.72605805    -0.12700
C116        C  0.23468532  0.51660500  0.72365594     0.00900
C117        C  0.22193309  0.50386953  0.74699885    -0.11300
C118        C  0.23302033  0.49171578  0.77283054     0.03400
C119        C  0.25719485  0.49202692  0.77437169    -0.10700
H120        H  0.26856478  0.52669348  0.70770567     0.09000
H121        H  0.20333023  0.50388781  0.74542010     0.06500
H122        H  0.26604246  0.48223771  0.79350421     0.06400
C123        C  0.50468570  0.27372080  0.73749267     0.03400
C124        C  0.51779565  0.26240012  0.76206679    -0.12700
C125        C  0.51615541  0.23853192  0.76648145     0.00900
C126        C  0.50188501  0.22578076  0.74508120    -0.11300
C127        C  0.48908606  0.23666705  0.71983783     0.03400
C128        C  0.49052052  0.26063114  0.71637736    -0.10700
H129        H  0.52930435  0.27219328  0.77789808     0.09000
H130        H  0.50032582  0.20738507  0.74858823     0.06500
H131        H  0.48035049  0.26911634  0.69738613     0.06400
C132        C  0.73649550  0.51001603  0.74609521     0.03400
C133        C  0.74968819  0.49605378  0.72468635    -0.12700
C134        C  0.77382996  0.49678570  0.72512396     0.00900
C135        C  0.78493512  0.51004675  0.74957205    -0.11300
C136        C  0.77225462  0.52335399  0.77226765     0.03400
C137        C  0.74817864  0.52392908  0.76949711    -0.10700
H138        H  0.74130915  0.48455953  0.70736701     0.09000
H139        H  0.80352866  0.51003039  0.75096460     0.06500
H140        H  0.73863648  0.53503381  0.78614761     0.06400
C141        C  0.00386108  0.77501171  0.75887339     0.03400
C142        C  0.01680968  0.76352707  0.73436188    -0.12700
C143        C  0.01650411  0.73936743  0.73213079     0.00900
C144        C  0.00381369  0.72681203  0.75597881    -0.11300
C145        C  0.99126116  0.73810890  0.78104419     0.03400
C146        C  0.99126566  0.76217095  0.78220666    -0.10700
H147        H  0.02692914  0.77350398  0.71687666     0.09000
H148        H  0.00316919  0.70823172  0.75462867     0.06500
H149        H  0.98162234  0.77092776  0.80159226     0.06400
N150        N  0.02593234  0.03058497  0.74520992    -0.36300
N151        N  0.97578496  0.03185286  0.74390876    -0.56900
N152        N  0.97507481  0.98259929  0.75506718    -0.36300
N153        N  0.02513418  0.98136004  0.75275637    -0.56900
C154        C  0.02194241  0.05194705  0.73325345     0.27300
C155        C  0.04799043  0.02521503  0.73771100     0.27300
C156        C  0.95275145  0.98660756  0.74751587     0.27200
C157        C  0.97885675  0.95983208  0.75096877     0.27200
C158        C  0.98031807  0.05457147  0.74644932     0.35900
C159        C  0.95333870  0.02914623  0.75183451     0.35900
C160        C  0.04769221  0.98520030  0.75866206     0.35900
C161        C  0.02075640  0.95971533  0.76308633     0.35900
C162        C  0.04161112  0.06024280  0.71784369    -0.21600
C163        C  0.05802964  0.04330985  0.72048810    -0.21600
C164        C  0.94217618  0.96613725  0.73865685    -0.21600
C165        C  0.95868438  0.94923202  0.74073654    -0.21600
C166        C  0.96063684  0.06637517  0.75578175    -0.22700
C167        C  0.94351985  0.05025113  0.75916119    -0.22700
C168        C  0.05763464  0.96596502  0.77316339    -0.22700
C169        C  0.04058637  0.94971724  0.77566477    -0.22700
C170        C  0.00167350  0.06483193  0.73852698    -0.18000
C171        C  0.05964746  0.00510494  0.74823497    -0.18000
C172        C  0.99962572  0.94824773  0.75841483    -0.18000
C173        C  0.94139317  0.00799347  0.75068564    -0.18000
H174        H  0.04395846  0.07689402  0.70627139     0.14900
H175        H  0.07548138  0.04436985  0.71123370     0.14900
H176        H  0.92436277  0.96361745  0.73170307     0.14900
H177        H  0.95603078  0.93113948  0.73581160     0.14900
H178        H  0.95876449  0.08469222  0.75956002     0.13200
H179        H  0.92586113  0.05368389  0.76608036     0.13200
H180        H  0.07540516  0.96367911  0.78048696     0.13200
H181        H  0.04259134  0.93244072  0.78526933     0.13200
H182        H  0.01519854  0.02154166  0.76132015     0.26400
H183        H  0.98630410  0.99422749  0.76614478     0.26400
C184        C  0.23398812  0.99983195  0.73997659     0.03400
C185        C  0.24620491  0.98729955  0.76437198    -0.12700
C186        C  0.27035249  0.98710575  0.76454799     0.00900
C187        C  0.28243519  0.99896841  0.73960553    -0.11300
C188        C  0.27053410  0.01099260  0.71467455     0.03400
C189        C  0.24644119  0.01166365  0.71518157    -0.10700
H190        H  0.23699465  0.97814598  0.78379702     0.09000
H191        H  0.30107613  0.99903095  0.73979036     0.06500
H192        H  0.23752467  0.02204299  0.69679468     0.06400
C193        C  0.00347176  0.23841093  0.73829561     0.03400
C194        C  0.01349595  0.25083551  0.76473530    -0.12700
C195        C  0.01102325  0.27483611  0.76687316     0.00900
C196        C  0.99869507  0.28636543  0.74172034    -0.11300
C197        C  0.98926783  0.27432534  0.71460208     0.03400
C198        C  0.99177220  0.25038088  0.71294584    -0.10700
H199        H  0.02360526  0.24178156  0.78329020     0.09000
H200        H  0.99665777  0.30484842  0.74295249     0.06500
H201        H  0.98401605  0.24102392  0.69239338     0.06400
C202        C  0.76785850  0.00431831  0.76117998     0.03400
C203        C  0.75537804  0.01624637  0.78567591    -0.12700
C204        C  0.73124597  0.01523191  0.78636259     0.00900
C205        C  0.71964914  0.00209453  0.76215569    -0.11300
C206        C  0.73181267  0.99050008  0.73682329     0.03400
C207        C  0.75595403  0.99203948  0.73641514    -0.10700
H208        H  0.76449563  0.02643873  0.80406401     0.09000
H209        H  0.70107914  0.00087460  0.76323574     0.06500
H210        H  0.76561714  0.98421980  0.71627824     0.06400
C211        C  0.99663198  0.23833159  0.24599673     0.03400
C212        C  0.98324462  0.25047815  0.26927057    -0.12700
C213        C  0.98281465  0.27460000  0.26919989     0.00900
C214        C  0.99579684  0.28661706  0.24523934    -0.11300
C215        C  0.00956924  0.27475913  0.22205188     0.03400
C216        C  0.01021599  0.25066453  0.22318264    -0.10700
H217        H  0.97264384  0.24118117  0.28697598     0.09000
H218        H  0.99516493  0.30519602  0.24468653     0.06500
H219        H  0.02139584  0.24146894  0.20614990     0.06400
N220        N  0.97258766  0.03032477  0.23988951    -0.36300
N221        N  0.97315981  0.98069168  0.24444407    -0.56900
N222        N  0.02309442  0.98129097  0.24102413    -0.36300
N223        N  0.02254172  0.03097610  0.23988775    -0.56900
C224        C  0.95056568  0.02597046  0.24872983     0.27300
C225        C  0.97683508  0.05261987  0.24721202     0.27300
C226        C  0.01934478  0.95929316  0.25029649     0.27200
C227        C  0.04548245  0.98592990  0.24713269     0.27200
C228        C  0.95043635  0.98388773  0.23915099     0.35900
C229        C  0.97715458  0.95802136  0.24025359     0.35900
C230        C  0.01818027  0.05312660  0.23212391     0.35900
C231        C  0.04484344  0.02723442  0.23222803     0.35900
C232        C  0.94063596  0.04571207  0.26164309    -0.21600
C233        C  0.95727056  0.06249485  0.26094670    -0.21600
C234        C  0.03962244  0.94978137  0.26229108    -0.21600
C235        C  0.05615733  0.96662618  0.26025527    -0.21600
C236        C  0.93991236  0.96316097  0.23164200    -0.22700
C237        C  0.95686770  0.94673035  0.23239721    -0.22700
C238        C  0.03775974  0.06345076  0.21924612    -0.22700
C239        C  0.05473141  0.04705400  0.21955357    -0.22700
C240        C  0.93888202  0.00496644  0.24380103    -0.18000
C241        C  0.99739564  0.06457148  0.23962403    -0.18000
C242        C  0.05674532  0.00665348  0.23898664    -0.18000
C243        C  0.99850878  0.94718445  0.24603932    -0.18000
H244        H  0.92320661  0.04780562  0.27063042     0.14900
H245        H  0.95508093  0.08003981  0.26931322     0.14900
H246        H  0.04230546  0.93240757  0.27114098     0.14900
H247        H  0.07404970  0.96478654  0.26723945     0.14900
H248        H  0.92185852  0.96013912  0.22674463     0.13200
H249        H  0.95448613  0.92852010  0.22813348     0.13200
H250        H  0.03973206  0.08107479  0.21110551     0.13200
H251        H  0.07236895  0.04948667  0.21168052     0.13200
H252        H  0.98317958  0.01949498  0.22608182     0.26400
H253        H  0.01177527  0.99159849  0.22760456     0.26400
C254        C  0.76553782  0.01139575  0.25300926     0.03400
C255        C  0.75356145  0.99976835  0.27835586    -0.12700
C256        C  0.72943484  0.00038266  0.27968586     0.00900
C257        C  0.71729183  0.01261196  0.25503749    -0.11300
C258        C  0.72899530  0.02433626  0.22943474     0.03400
C259        C  0.75313756  0.02346944  0.22850865    -0.10700
H260        H  0.76306473  0.99013027  0.29699423     0.09000
H261        H  0.69868840  0.01334844  0.25615408     0.06500
H262        H  0.76231669  0.03169383  0.20820837     0.06400
C263        C  0.99855100  0.77481004  0.25858961     0.03400
C264        C  0.98745453  0.76385437  0.23186918    -0.12700
C265        C  0.98669073  0.73979640  0.22970187     0.00900
C266        C  0.99749338  0.72668564  0.25481953    -0.11300
C267        C  0.00898871  0.73743801  0.28150467     0.03400
C268        C  0.00933363  0.76152860  0.28330979    -0.10700
H269        H  0.97971104  0.77421246  0.21234636     0.09000
H270        H  0.99659655  0.70810888  0.25415068     0.06500
H271        H  0.01811593  0.76994176  0.30384769     0.06400
C272        C  0.22985057  0.01393696  0.24085686     0.03400
C273        C  0.24108965  0.02610929  0.26645582    -0.12700
C274        C  0.26521291  0.02642238  0.26812565     0.00900
C275        C  0.27796373  0.01397345  0.24453525    -0.11300
C276        C  0.26702546  0.00228529  0.21834921     0.03400
C277        C  0.24292762  0.00229921  0.21676278    -0.10700
H278        H  0.23109956  0.03527104  0.28503867     0.09000
H279        H  0.29649263  0.01313411  0.24694336     0.06500
H280        H  0.23426781  0.99339833  0.19654735     0.06400
O281        O  0.15049944  0.38725563  0.03036479    -0.72700
O282        O  0.11535835  0.35249057  0.95960238    -0.73700
O283        O  0.14977488  0.38694022  0.95889878    -0.62300
O284        O  0.11608485  0.35233079  0.03065086    -0.70700
O285        O  0.08868015  0.37871217  0.03068322    -0.70200
O286        O  0.12324886  0.41428036  0.96032678    -0.61500
O287        O  0.08876406  0.37971165  0.95955327    -0.74000
O288        O  0.12294736  0.41350950  0.03155333    -0.72800
Cu289      Cu  0.13388359  0.36884141  0.99489892     1.04600
Cu290      Cu  0.10498840  0.39748379  0.99555911     1.04300
C291        C  0.14214246  0.40584893  0.04239607     0.93500
C292        C  0.09651585  0.36069744  0.94821506     0.92700
C293        C  0.14185234  0.40605458  0.94818114     0.84800
C294        C  0.09693559  0.35983097  0.04187201     0.91100
O295        O  0.61527242  0.16052666  0.96452519    -0.72700
O296        O  0.64792714  0.12807332  0.03915394    -0.73700
O297        O  0.64987289  0.12612640  0.96805781    -0.62300
O298        O  0.61326505  0.16198288  0.03518315    -0.70700
O299        O  0.58688603  0.13454681  0.03552376    -0.70200
O300        O  0.62269612  0.09950387  0.96678931    -0.61500
O301        O  0.62182787  0.10025151  0.03756637    -0.74000
O302        O  0.58808590  0.13388169  0.96427714    -0.72800
Cu303      Cu  0.63250070  0.14510566  0.00171044     1.04600
Cu304      Cu  0.60391227  0.11611016  0.00105129     1.04300
C305        C  0.59650458  0.15254578  0.95263901     0.93500
C306        C  0.64016603  0.10893324  0.04989253     0.92700
C307        C  0.64208319  0.10712416  0.95667964     0.84800
C308        C  0.59433427  0.15384030  0.04625201     0.91100
O309        O  0.86962316  0.60407969  0.04133156    -0.72700
O310        O  0.90543097  0.63546830  0.96915198    -0.73700
O311        O  0.90492412  0.63791777  0.03981440    -0.62300
O312        O  0.86997663  0.60204612  0.97054059    -0.70700
O313        O  0.84493725  0.63072191  0.96631374    -0.70200
O314        O  0.87745837  0.66443063  0.04006923    -0.61500
O315        O  0.88041210  0.66420244  0.96886372    -0.74000
O316        O  0.84229957  0.63046812  0.03778328    -0.72800
Cu317      Cu  0.88836990  0.61892432  0.00534238     1.04600
Cu318      Cu  0.86031204  0.64842490  0.00321452     1.04300
C319        C  0.85017984  0.61196220  0.05077588     0.93500
C320        C  0.89881763  0.65486094  0.95772374     0.92700
C321        C  0.89662045  0.65675341  0.05095509     0.84800
C322        C  0.85224536  0.61105708  0.95695381     0.91100
O323        O  0.38224759  0.85700578  0.03712182    -0.72700
O324        O  0.34724868  0.89279461  0.96738323    -0.73700
O325        O  0.38097675  0.85745444  0.96553639    -0.62300
O326        O  0.34863784  0.89229434  0.03851692    -0.70700
O327        O  0.37532247  0.91952848  0.03559052    -0.70200
O328        O  0.40927094  0.88305470  0.96665150    -0.61500
O329        O  0.37546133  0.91829983  0.96494607    -0.74000
O330        O  0.40897945  0.88410364  0.03730826    -0.72800
Cu331      Cu  0.36379484  0.87394391  0.00216115     1.04600
Cu332      Cu  0.39320191  0.90214155  0.00112381     1.04300
C333        C  0.40117866  0.86505363  0.04845702     0.93500
C334        C  0.35589500  0.91108676  0.95486589     0.92700
C335        C  0.40039891  0.86468880  0.95490568     0.84800
C336        C  0.35677219  0.91158733  0.04810186     0.91100
O337        O  0.15429370  0.62499776  0.53720321    -0.72700
O338        O  0.11809246  0.65873783  0.46666108    -0.73700
O339        O  0.11989346  0.66002677  0.53773433    -0.62300
O340        O  0.15260001  0.62393001  0.46648629    -0.70700
O341        O  0.12534449  0.59730075  0.46823210    -0.70200
O342        O  0.09291413  0.63323940  0.54008230    -0.61500
O343        O  0.09114776  0.63187187  0.46899005    -0.74000
O344        O  0.12715948  0.59832609  0.53933473    -0.72800
Cu345      Cu  0.13714929  0.64287160  0.50196841     1.04600
Cu346      Cu  0.10819928  0.61428128  0.50429312     1.04300
C347        C  0.14656978  0.60613320  0.54913712     0.93500
C348        C  0.09893548  0.65049836  0.45646281     0.92700
C349        C  0.10115322  0.65240152  0.55018903     0.84800
C350        C  0.14419084  0.60493852  0.45611651     0.91100
O351        O  0.37247512  0.09804772  0.52718674    -0.72700
O352        O  0.40619821  0.13726942  0.46106102    -0.73700
O353        O  0.40669661  0.13299690  0.53123920    -0.62300
O354        O  0.37191412  0.10277604  0.45672845    -0.70700
O355        O  0.34474895  0.12931716  0.46072008    -0.70200
O356        O  0.37899692  0.15908813  0.53582115    -0.61500
O357        O  0.37906464  0.16390396  0.46481753    -0.74000
O358        O  0.34501331  0.12425516  0.53111473    -0.72800
Cu359      Cu  0.39025408  0.11685479  0.49394476     1.04600
Cu360      Cu  0.36102106  0.14509415  0.49826957     1.04300
C361        C  0.35333269  0.10472383  0.53948432     0.93500
C362        C  0.39801607  0.15673384  0.45234286     0.92700
C363        C  0.39834298  0.15091657  0.54511200     0.84800
C364        C  0.35271805  0.11117822  0.44703663     0.91100
O365        O  0.87594014  0.41830693  0.52993903    -0.72700
O366        O  0.90680122  0.38210198  0.45728722    -0.73700
O367        O  0.87280086  0.41711532  0.45930251    -0.62300
O368        O  0.90999620  0.38280544  0.52789153    -0.70700
O369        O  0.88296347  0.35602248  0.52977939    -0.70200
O370        O  0.84506738  0.39123237  0.46373294    -0.61500
O371        O  0.87881737  0.35625330  0.45912536    -0.74000
O372        O  0.84937154  0.39107458  0.53449020    -0.72800
Cu373      Cu  0.89233707  0.40102674  0.49352521     1.04600
Cu374      Cu  0.86310057  0.37274837  0.49691986     1.04300
C375        C  0.85785512  0.41028858  0.54377003     0.93500
C376        C  0.89763932  0.36356705  0.44653276     0.92700
C377        C  0.85295825  0.40966566  0.45075936     0.84800
C378        C  0.90250300  0.36367460  0.53924102     0.91100
O379        O  0.59196043  0.88397633  0.54073583    -0.72700
O380        O  0.62617350  0.91890933  0.47027214    -0.73700
O381        O  0.59093199  0.88536938  0.46946321    -0.62300
O382        O  0.62785828  0.91748784  0.54087787    -0.70700
O383        O  0.65350765  0.88924886  0.53968496    -0.70200
O384        O  0.61732576  0.85788932  0.46771877    -0.61500
O385        O  0.65284518  0.89177851  0.46844097    -0.74000
O386        O  0.61769986  0.85600106  0.53862335    -0.72800
Cu387      Cu  0.60832891  0.90237568  0.50545529     1.04600
Cu388      Cu  0.63627119  0.87276932  0.50352189     1.04300
C389        C  0.59917566  0.86442670  0.55082971     0.93500
C390        C  0.64487805  0.91105279  0.45814482     0.92700
C391        C  0.59843727  0.86649422  0.45725618     0.84800
C392        C  0.64649951  0.90837755  0.55149618     0.91100
C393        C  0.30789965  0.06580938  0.31109660    -0.27300
C394        C  0.30177245  0.06310719  0.34472316     0.02300
C395        C  0.28317250  0.04879975  0.35324475     0.30300
C396        C  0.27105116  0.03720843  0.32811862    -0.19100
C397        C  0.27736277  0.03965446  0.29438382    -0.28500
C398        C  0.29576354  0.05437770  0.28598303     0.44400
C399        C  0.31487197  0.07546303  0.37065766     0.05600
O400        O  0.27693568  0.04582926  0.38605554    -0.57100
H401        H  0.25703894  0.02590482  0.33503790     0.18500
O402        O  0.30193498  0.05785587  0.25324994    -0.63800
H403        H  0.32201954  0.07702469  0.30430443     0.16900
C404        C  0.33819924  0.07050274  0.37628117     0.29200
C405        C  0.35032563  0.08235975  0.40105310    -0.24700
C406        C  0.33958308  0.09956581  0.42016369    -0.23900
C407        C  0.31624203  0.10483103  0.41384668     0.40700
C408        C  0.30405522  0.09261944  0.38947508    -0.26400
O409        O  0.34901963  0.05348002  0.35852384    -0.58300
H410        H  0.36820025  0.07799480  0.40530356     0.16300
O411        O  0.30490694  0.12130779  0.43199990    -0.59700
H412        H  0.28610865  0.09664307  0.38508404     0.14700
H413        H  0.29109100  0.06963959  0.24473183     0.46600
H414        H  0.35779619  0.06156611  0.34081141     0.42000
H415        H  0.30549148  0.13537344  0.41800750     0.45400
H416        H  0.28734038  0.03371116  0.39473931     0.36900
C417        C  0.31330343  0.98642559  0.15529466    -0.27300
C418        C  0.30631664  0.96429050  0.14571290     0.02300
C419        C  0.28621398  0.95490757  0.15990286     0.30300
C420        C  0.27379487  0.96736068  0.18365160    -0.19100
C421        C  0.28070415  0.98952609  0.19316798    -0.28500
C422        C  0.30055409  0.99914719  0.17849794     0.44400
C423        C  0.31996946  0.95112400  0.12089142     0.05600
O424        O  0.27837868  0.93363903  0.15050504    -0.57100
H425        H  0.25867276  0.95959382  0.19471421     0.18500
O426        O  0.30697101  0.02134528  0.18541379    -0.63800
H427        H  0.32874818  0.99392405  0.14483454     0.16900
C428        C  0.32683332  0.96110633  0.09031616     0.29200
C429        C  0.33919011  0.94808357  0.06701939    -0.24700
C430        C  0.34451057  0.92503302  0.07350059    -0.23900
C431        C  0.33791748  0.91508412  0.10404924     0.40700
C432        C  0.32595496  0.92817554  0.12763000    -0.26400
O433        O  0.32043841  0.98311721  0.08221486    -0.58300
H434        H  0.34406823  0.95582341  0.04339952     0.16300
O435        O  0.34325914  0.89265438  0.11119123    -0.59700
H436        H  0.32131854  0.92035093  0.15127800     0.14700
H437        H  0.32149514  0.02012204  0.19832292     0.46600
H438        H  0.33478554  0.99230445  0.08314864     0.42000
H439        H  0.35896771  0.89312999  0.12084266     0.45400
H440        H  0.26927326  0.93633482  0.12988263     0.36900
C441        C  0.03015091  0.71483011  0.36521766    -0.27300
C442        C  0.04674457  0.69880251  0.35508904     0.02300
C443        C  0.05028659  0.69486251  0.32074625     0.30300
C444        C  0.03749756  0.70713889  0.29700003    -0.19100
C445        C  0.02119751  0.72355976  0.30707857    -0.28500
C446        C  0.01732529  0.72707298  0.34152581     0.44400
C447        C  0.06039384  0.68643445  0.38060715     0.05600
O448        O  0.06649135  0.67935342  0.31019234    -0.57100
H449        H  0.04073521  0.70426687  0.27063340     0.18500
O450        O  0.00098890  0.74237187  0.35229440    -0.63800
H451        H  0.02710986  0.71778921  0.39161294     0.16900
C452        C  0.07650259  0.69816380  0.40052762     0.29200
C453        C  0.08918988  0.68623052  0.42475110    -0.24700
C454        C  0.08567601  0.66260987  0.43006465    -0.23900
C455        C  0.06945681  0.65091046  0.40995255     0.40700
C456        C  0.05707025  0.66282504  0.38538920    -0.26400
O457        O  0.08032496  0.72120149  0.39591937    -0.58300
H458        H  0.10155418  0.69558993  0.43976665     0.16300
O459        O  0.06559916  0.62782269  0.41391974    -0.59700
H460        H  0.04466514  0.65365078  0.37018991     0.14700
H461        H  0.98626458  0.73378945  0.35156437     0.46600
H462        H  0.07047022  0.72898756  0.41268218     0.42000
H463        H  0.07688647  0.62017264  0.39902631     0.45400
H464        H  0.08100596  0.68822771  0.30861051     0.36900
C465        C  0.91195140  0.69056730  0.12878684    -0.27300
C466        C  0.93531197  0.69545978  0.12308713     0.02300
C467        C  0.94559407  0.68782811  0.09311596     0.30300
C468        C  0.93286088  0.67487451  0.07016984    -0.19100
C469        C  0.90960300  0.67002178  0.07597682    -0.28500
C470        C  0.89905972  0.67815843  0.10533780     0.44400
C471        C  0.94895122  0.70763073  0.14912493     0.05600
O472        O  0.96802499  0.69310060  0.08584720    -0.57100
H473        H  0.94105640  0.66900477  0.04737323     0.18500
O474        O  0.87634122  0.67358930  0.11171367    -0.63800
H475        H  0.90376472  0.69596225  0.15182102     0.16900
C476        C  0.94069097  0.72780550  0.16445607     0.29200
C477        C  0.95300100  0.73789091  0.19069646    -0.24700
C478        C  0.97410036  0.72865559  0.20155614    -0.23900
C479        C  0.98288445  0.70909621  0.18505397     0.40700
C480        C  0.97015375  0.69855032  0.15961094    -0.26400
O481        O  0.92057681  0.73783243  0.15402667    -0.58300
H482        H  0.94583303  0.75292698  0.20278220     0.16300
O483        O  0.00398224  0.70020154  0.19327983    -0.59700
H484        H  0.97683301  0.68303371  0.14824027     0.14700
H485        H  0.87634380  0.65902626  0.12459960     0.46600
H486        H  0.92502003  0.74798919  0.13517844     0.42000
H487        H  0.01525009  0.70946473  0.18043939     0.45400
H488        H  0.96738819  0.70815908  0.07426003     0.36900
C489        C  0.65818617  0.95485525  0.38999351    -0.27300
C490        C  0.68124670  0.94995162  0.38295794     0.02300
C491        C  0.69241728  0.93228003  0.40065876     0.30300
C492        C  0.68044126  0.91965356  0.42493461    -0.19100
C493        C  0.65725671  0.92448641  0.43210913    -0.28500
C494        C  0.64618402  0.94235403  0.41425802     0.44400
C495        C  0.69333324  0.96309373  0.35659052     0.05600
O496        O  0.71500296  0.92714033  0.39423735    -0.57100
H497        H  0.68938221  0.90613539  0.43828527     0.18500
O498        O  0.62358108  0.94775036  0.42010354    -0.63800
H499        H  0.64943224  0.96846218  0.37654512     0.16900
C500        C  0.68656898  0.96126312  0.32289676     0.29200
C501        C  0.69840667  0.97349072  0.29812803    -0.24700
C502        C  0.71687296  0.98795561  0.30651796    -0.23900
C503        C  0.72318031  0.99026144  0.34047116     0.40700
C504        C  0.71159466  0.97768602  0.36514108    -0.26400
O505        O  0.66895412  0.94687522  0.31384816    -0.58300
H506        H  0.69334572  0.97140526  0.27221139     0.16300
O507        O  0.74043727  0.00496918  0.34988523    -0.59700
H508        H  0.71668669  0.97951241  0.39108823     0.14700
H509        H  0.61466891  0.93805466  0.40434241     0.46600
H510        H  0.65525389  0.95691499  0.31174744     0.42000
H511        H  0.73324698  0.02041960  0.35035366     0.45400
H512        H  0.71459600  0.91594243  0.37555046     0.36900
C513        C  0.67139221  0.06216718  0.09741061    -0.27300
C514        C  0.67731781  0.07344195  0.12733468     0.02300
C515        C  0.67080583  0.09667882  0.13145138     0.30300
C516        C  0.65900087  0.10818338  0.10585377    -0.19100
C517        C  0.65271679  0.09663868  0.07645388    -0.28500
C518        C  0.65895204  0.07348106  0.07235136     0.44400
C519        C  0.69037405  0.06085594  0.15377862     0.05600
O520        O  0.67554782  0.10823943  0.16055056    -0.57100
H521        H  0.65425252  0.12603439  0.10929737     0.18500
O522        O  0.65339328  0.06188533  0.04358555    -0.63800
H523        H  0.67664777  0.04455181  0.09320727     0.16900
C524        C  0.68402809  0.03844608  0.16369198     0.29200
C525        C  0.69684935  0.02675148  0.18797633    -0.24700
C526        C  0.71591889  0.03711615  0.20338676    -0.23900
C527        C  0.72209834  0.05962312  0.19391267     0.40700
C528        C  0.70950996  0.07118266  0.16915746    -0.26400
O529        O  0.66514494  0.02784274  0.15011098    -0.58300
H530        H  0.69182912  0.00944893  0.19480853     0.16300
O531        O  0.73971536  0.07087605  0.20984517    -0.59700
H532        H  0.71487125  0.08828354  0.16186993     0.14700
H533        H  0.66599616  0.06537859  0.02766725     0.46600
H534        H  0.65194669  0.03310942  0.16381196     0.42000
H535        H  0.75229460  0.07189645  0.19316318     0.45400
H536        H  0.66283570  0.10421340  0.17599321     0.36900
C537        C  0.16700656  0.03144360  0.23890329    -0.27300
C538        C  0.15604684  0.00997820  0.23724736     0.02300
C539        C  0.16949323  0.98987949  0.23588643     0.30300
C540        C  0.19349243  0.99143530  0.23682212    -0.19100
C541        C  0.20444011  0.01288476  0.23935031    -0.28500
C542        C  0.19099671  0.03299886  0.23995540     0.44400
C543        C  0.13060786  0.00879875  0.23791277     0.05600
O544        O  0.15934704  0.96863399  0.23429611    -0.57100
H545        H  0.20360007  0.97579548  0.23623581     0.18500
O546        O  0.20113632  0.05425302  0.24123558    -0.63800
H547        H  0.15689778  0.04707839  0.23930263     0.16900
C548        C  0.11817104  0.01900202  0.26425304     0.29200
C549        C  0.09414065  0.01802414  0.26446171    -0.24700
C550        C  0.08222985  0.00702978  0.23854358    -0.23900
C551        C  0.09456945  0.99673744  0.21226828     0.40700
C552        C  0.11863184  0.99759363  0.21210427    -0.26400
O553        O  0.12944046  0.02920170  0.29050799    -0.58300
H554        H  0.08473837  0.02583038  0.28491299     0.16300
O555        O  0.08322454  0.98588619  0.18666501    -0.59700
H556        H  0.12795893  0.98978164  0.19158943     0.14700
H557        H  0.20325630  0.05886110  0.21754808     0.46600
H558        H  0.12773457  0.04596427  0.28683050     0.42000
H559        H  0.07937099  0.99821725  0.17047994     0.45400
H560        H  0.15684174  0.96404158  0.25790711     0.36900
C561        C  0.00849918  0.88425035  0.22669624    -0.27300
C562        C  0.99926170  0.87379359  0.25530604     0.02300
C563        C  0.99015423  0.88747008  0.28107678     0.30300
C564        C  0.99007314  0.91139805  0.27784306    -0.19100
C565        C  0.99898291  0.92183969  0.24903435    -0.28500
C566        C  0.00846130  0.90818649  0.22349747     0.44400
C567        C  0.99891091  0.84854604  0.25779867     0.05600
O568        O  0.98201679  0.87756212  0.30987614    -0.57100
H569        H  0.98309299  0.92186147  0.29782686     0.18500
O570        O  0.01717260  0.91810594  0.19506905    -0.63800
H571        H  0.01552479  0.87380235  0.20672562     0.16900
C572        C  0.97808911  0.83642374  0.25528645     0.29200
C573        C  0.97817092  0.81240756  0.25626265    -0.24700
C574        C  0.99885843  0.80021355  0.26007901    -0.23900
C575        C  0.01966387  0.81245697  0.26318843     0.40700
C576        C  0.01957772  0.83648416  0.26190790    -0.26400
O577        O  0.95777120  0.84791136  0.25024590    -0.58300
H578        H  0.96204140  0.80324967  0.25371453     0.16300
O579        O  0.04021533  0.80111813  0.26649303    -0.59700
H580        H  0.03568657  0.84574820  0.26380760     0.14700
H581        H  0.03390072  0.91968343  0.19925136     0.46600
H582        H  0.94951304  0.84706423  0.27191120     0.42000
H583        H  0.04517384  0.79762576  0.24330767     0.45400
H584        H  0.96503797  0.87894026  0.30856192     0.36900
C585        C  0.87731870  0.99648783  0.27296257    -0.27300
C586        C  0.86491537  0.00684539  0.24683839     0.02300
C587        C  0.87694178  0.01622757  0.21945297     0.30300
C588        C  0.90099116  0.01538780  0.21865531    -0.19100
C589        C  0.91334238  0.00510579  0.24482844    -0.28500
C590        C  0.90137243  0.99567226  0.27215271     0.44400
C591        C  0.83946895  0.00791708  0.24847844     0.05600
O592        O  0.86533524  0.02614100  0.19328218    -0.57100
H593        H  0.91007299  0.02273925  0.19754934     0.18500
O594        O  0.91307507  0.98577530  0.29823748    -0.63800
H595        H  0.86831797  0.98933385  0.29428194     0.16900
C596        C  0.82625910  0.98775714  0.25160387     0.29200
C597        C  0.80225850  0.98912401  0.25332452    -0.24700
C598        C  0.79101876  0.01045851  0.25171227    -0.23900
C599        C  0.80427046  0.03065633  0.24887244     0.40700
C600        C  0.82828038  0.02927138  0.24711578    -0.26400
O601        O  0.83664121  0.96660566  0.25256173    -0.58300
H602        H  0.79235438  0.97342040  0.25536057     0.16300
O603        O  0.79395250  0.05184981  0.24831880    -0.59700
H604        H  0.83823853  0.04494581  0.24513134     0.14700
H605        H  0.91629549  0.99853961  0.31398676     0.46600
H606        H  0.83883305  0.96220592  0.22880330     0.42000
H607        H  0.79194233  0.05612579  0.27215420     0.45400
H608        H  0.86082597  0.01318072  0.17857110     0.36900
C609        C  0.90825329  0.32398352  0.37246417    -0.27300
C610        C  0.93230257  0.32473507  0.37017443     0.02300
C611        C  0.94479333  0.33868224  0.39242649     0.30300
C612        C  0.93324131  0.35151016  0.41678702    -0.19100
C613        C  0.90920046  0.35038943  0.41973895    -0.28500
C614        C  0.89667362  0.33662826  0.39708055     0.44400
C615        C  0.94432092  0.31113454  0.34429516     0.05600
O616        O  0.96825146  0.34041207  0.38980036    -0.57100
H617        H  0.94318662  0.36210365  0.43375013     0.18500
O618        O  0.87312974  0.33562090  0.39846235    -0.63800
H619        H  0.89846881  0.31345182  0.35522424     0.16900
C620        C  0.95915608  0.29306930  0.35329302     0.29200
C621        C  0.97142734  0.28125381  0.32859900    -0.24700
C622        C  0.96907620  0.28712056  0.29465323    -0.23900
C623        C  0.95371407  0.30483227  0.28561589     0.40700
C624        C  0.94135935  0.31658990  0.31040149    -0.26400
O625        O  0.96185035  0.28693629  0.38620032    -0.58300
H626        H  0.98307771  0.26764572  0.33604072     0.16300
O627        O  0.95005082  0.31016891  0.25259874    -0.59700
H628        H  0.92971296  0.33026135  0.30319466     0.14700
H629        H  0.86770562  0.34900585  0.38527909     0.46600
H630        H  0.94993641  0.27509120  0.39034380     0.42000
H631        H  0.95737654  0.32538100  0.24921394     0.45400
H632        H  0.97448188  0.33078279  0.40816474     0.36900
C633        C  0.04745635  0.31859272  0.17746662    -0.27300
C634        C  0.04696988  0.31029920  0.14454885     0.02300
C635        C  0.03436706  0.29034190  0.13717748     0.30300
C636        C  0.02230266  0.27901306  0.16257599    -0.19100
C637        C  0.02266787  0.28724050  0.19570484    -0.28500
C638        C  0.03562988  0.30713091  0.20302898     0.44400
C639        C  0.05951813  0.32273549  0.11799174     0.05600
O640        O  0.03362278  0.28187425  0.10517048    -0.57100
H641        H  0.01236146  0.26388616  0.15622594     0.18500
O642        O  0.03722433  0.31531342  0.23511729    -0.63800
H643        H  0.05727764  0.33388026  0.18339466     0.16900
C644        C  0.05147978  0.34397704  0.10611136     0.29200
C645        C  0.06366904  0.35570981  0.08119693    -0.24700
C646        C  0.08421259  0.34669056  0.06796606    -0.23900
C647        C  0.09217171  0.32523786  0.08005208     0.40700
C648        C  0.07972613  0.31341170  0.10465149    -0.26400
O649        O  0.03136426  0.35309941  0.11811576    -0.58300
H650        H  0.05700482  0.37199812  0.07236332     0.16300
O651        O  0.11190071  0.31545312  0.06780761    -0.59700
H652        H  0.08600961  0.29699982  0.11364007     0.14700
H653        H  0.04996818  0.30650885  0.24550637     0.46600
H654        H  0.03603333  0.36333826  0.13673925     0.42000
H655        H  0.12420123  0.32013070  0.08360336     0.45400
H656        H  0.02109769  0.29050271  0.09395977     0.36900
C657        C  0.01193007  0.12647045  0.26168421    -0.27300
C658        C  0.99573718  0.13866896  0.24257552     0.02300
C659        C  0.98020448  0.12633332  0.22223929     0.30300
C660        C  0.98133919  0.10235116  0.22080691    -0.19100
C661        C  0.99721526  0.09017757  0.24046317    -0.28500
C662        C  0.01241588  0.10247025  0.26131682     0.44400
C663        C  0.99541163  0.16418700  0.24380832     0.05600
O664        O  0.96360430  0.13750353  0.20406028    -0.57100
H665        H  0.96947010  0.09315294  0.20475704     0.18500
O666        O  0.02788437  0.09118769  0.28137404    -0.63800
H667        H  0.02426119  0.13558320  0.27706679     0.16900
C668        C  0.99592329  0.17608905  0.27455531     0.29200
C669        C  0.99658128  0.20012607  0.27498267    -0.24700
C670        C  0.99609971  0.21278753  0.24503958    -0.23900
C671        C  0.99472104  0.20083226  0.21435597     0.40700
C672        C  0.99486920  0.17683180  0.21392431    -0.26400
O673        O  0.99562850  0.16442433  0.30438146    -0.58300
H674        H  0.99753145  0.20887956  0.29885958     0.16300
O675        O  0.99284959  0.21238405  0.18455880    -0.59700
H676        H  0.99458432  0.16807200  0.19001809     0.14700
H677        H  0.01913647  0.08694891  0.30175172     0.46600
H678        H  0.97923053  0.16066350  0.30839742     0.42000
H679        H  0.97631334  0.21628832  0.18244174     0.45400
H680        H  0.95014412  0.13855763  0.21920025     0.36900
C681        C  0.71656818  0.94610252  0.67008047    -0.27300
C682        C  0.69629970  0.95535357  0.65651559     0.02300
C683        C  0.68704327  0.97546540  0.67082390     0.30300
C684        C  0.69867551  0.98658955  0.69693167    -0.19100
C685        C  0.71930313  0.97768776  0.71001840    -0.28500
C686        C  0.72777323  0.95677724  0.69691147     0.44400
C687        C  0.68449557  0.94329290  0.62849513     0.05600
O688        O  0.66603226  0.98367322  0.66063746    -0.57100
H689        H  0.69152563  0.00240552  0.70668734     0.18500
O690        O  0.74674998  0.94631238  0.71045985    -0.63800
H691        H  0.72371863  0.93038655  0.65994362     0.16900
C692        C  0.67692725  0.95520597  0.59974346     0.29200
C693        C  0.66427981  0.94370897  0.57506385    -0.24700
C694        C  0.66007042  0.92005789  0.57760396    -0.23900
C695        C  0.66897463  0.90780898  0.60507379     0.40700
C696        C  0.68070787  0.91947908  0.63051608    -0.26400
O697        O  0.68206859  0.97799131  0.59525319    -0.58300
H698        H  0.65814939  0.95320456  0.55350172     0.16300
O699        O  0.66524701  0.88463495  0.60815025    -0.59700
H700        H  0.68653359  0.90991725  0.65218315     0.14700
H701        H  0.74074673  0.93664664  0.72893533     0.46600
H702        H  0.69695972  0.97812485  0.58317685     0.42000
H703        H  0.67945424  0.87727891  0.59958811     0.45400
H704        H  0.66902868  0.99912990  0.65111648     0.36900
C705        C  0.71102140  0.04037517  0.86918861    -0.27300
C706        C  0.69269933  0.05425100  0.85870205     0.02300
C707        C  0.68689713  0.05514018  0.82459063     0.30300
C708        C  0.69956647  0.04236522  0.80132982    -0.19100
C709        C  0.71801861  0.02843925  0.81168028    -0.28500
C710        C  0.72364812  0.02747036  0.84599305     0.44400
C711        C  0.67972990  0.06771813  0.88364479     0.05600
O712        O  0.66935941  0.06902850  0.81370191    -0.57100
H713        H  0.69513370  0.04355185  0.77504963     0.18500
O714        O  0.74073326  0.01314840  0.85723005    -0.63800
H715        H  0.71539246  0.03938485  0.89551109     0.16900
C716        C  0.65730083  0.06138828  0.89281583     0.29200
C717        C  0.64528789  0.07436098  0.91652263    -0.24700
C718        C  0.65539898  0.09374460  0.93164162    -0.23900
C719        C  0.67810704  0.09981012  0.92260927     0.40700
C720        C  0.69002908  0.08682447  0.89876277    -0.26400
O721        O  0.64700858  0.04249739  0.87879166    -0.58300
H722        H  0.62796984  0.06917559  0.92302410     0.16300
O723        O  0.68885847  0.11839652  0.93674392    -0.59700
H724        H  0.70738691  0.09171310  0.89195765     0.14700
H725        H  0.75346551  0.02341662  0.86423465     0.46600
H726        H  0.65190177  0.02934630  0.89287003     0.42000
H727        H  0.69742303  0.11213673  0.95618455     0.45400
H728        H  0.65585570  0.05875362  0.81139221     0.36900
C729        C  0.95234901  0.34099294  0.59178962    -0.27300
C730        C  0.94139551  0.32366102  0.61021678     0.02300
C731        C  0.91797152  0.31915511  0.60457487     0.30300
C732        C  0.90563299  0.33229079  0.58145886    -0.19100
C733        C  0.91632269  0.35006957  0.56340499    -0.28500
C734        C  0.94003756  0.35413722  0.56845665     0.44400
C735        C  0.95405806  0.31109945  0.63658904     0.05600
O736        O  0.90692436  0.30202430  0.62180598    -0.57100
H737        H  0.88752955  0.32863202  0.57793423     0.18500
O738        O  0.95137685  0.37091904  0.55092147    -0.63800
H739        H  0.97040203  0.34460761  0.59594988     0.16900
C740        C  0.97288071  0.29685895  0.62889887     0.29200
C741        C  0.98401142  0.28465530  0.65445222    -0.24700
C742        C  0.97689807  0.28688580  0.68788193    -0.23900
C743        C  0.95820959  0.30134756  0.69552679     0.40700
C744        C  0.94683694  0.31316040  0.66991934    -0.26400
O745        O  0.97994149  0.29413748  0.59640478    -0.58300
H746        H  0.99839127  0.27361443  0.64822905     0.16300
O747        O  0.95034890  0.30325055  0.72776996    -0.59700
H748        H  0.93231382  0.32402919  0.67609595     0.14700
H749        H  0.95689040  0.36326789  0.53025752     0.46600
H750        H  0.99327467  0.30460557  0.59381017     0.42000
H751        H  0.95529551  0.31869192  0.73540460     0.45400
H752        H  0.90993774  0.28780714  0.60886293     0.36900
C753        C  0.03322249  0.29280182  0.85283829    -0.27300
C754        C  0.04479328  0.31328002  0.84514138     0.02300
C755        C  0.04462106  0.32141266  0.81201281     0.30300
C756        C  0.03353374  0.30877126  0.78696090    -0.19100
C757        C  0.02208244  0.28810364  0.79441137    -0.28500
C758        C  0.02166286  0.28039958  0.82793887     0.44400
C759        C  0.05778302  0.32549932  0.87160366     0.05600
O760        O  0.05637318  0.34101546  0.80358011    -0.57100
H761        H  0.03439691  0.31494217  0.76142304     0.18500
O762        O  0.00992890  0.26088192  0.83677067    -0.63800
H763        H  0.03307281  0.28647805  0.87834134     0.16900
C764        C  0.05231108  0.34820111  0.88068551     0.29200
C765        C  0.06508984  0.35940651  0.90548716    -0.24700
C766        C  0.08348624  0.34830332  0.92174662    -0.23900
C767        C  0.08891105  0.32550098  0.91248072     0.40700
C768        C  0.07595985  0.31427521  0.88785977    -0.26400
O769        O  0.03439356  0.35954384  0.86565301    -0.58300
H770        H  0.06052951  0.37689472  0.91196359     0.16300
O771        O  0.10647413  0.31377407  0.92775506    -0.59700
H772        H  0.08030787  0.29677076  0.88112057     0.14700
H773        H  0.99380542  0.26589849  0.84018921     0.46600
H774        H  0.02050358  0.35480496  0.87826284     0.42000
H775        H  0.11993406  0.31574781  0.91279728     0.45400
H776        H  0.04437363  0.35269450  0.79887068     0.36900
C777        C  0.30343043  0.05827382  0.67092908    -0.27300
C778        C  0.30589780  0.04920574  0.63853822     0.02300
C779        C  0.29726084  0.02704011  0.63169948     0.30300
C780        C  0.28599103  0.01457397  0.65682750    -0.19100
C781        C  0.28325220  0.02390532  0.68890588    -0.28500
C782        C  0.29211802  0.04582613  0.69594905     0.44400
C783        C  0.31741429  0.06309074  0.61220753     0.05600
O784        O  0.29944562  0.01755876  0.60045074    -0.57100
H785        H  0.27919333  0.99767273  0.65122194     0.18500
O786        O  0.28975002  0.05521783  0.72722586    -0.63800
H787        H  0.31031492  0.07508056  0.67684956     0.16900
C788        C  0.31003108  0.08559441  0.60492382     0.29200
C789        C  0.32161391  0.09874063  0.58087482    -0.24700
C790        C  0.34079938  0.08990604  0.56376189    -0.23900
C791        C  0.34773550  0.06705994  0.57044804     0.40700
C792        C  0.33618394  0.05398459  0.59461095    -0.26400
O793        O  0.29103376  0.09461775  0.62047050    -0.58300
H794        H  0.31562350  0.11603509  0.57592352     0.16300
O795        O  0.36588917  0.05730132  0.55380010    -0.59700
H796        H  0.34211824  0.03671527  0.59991950     0.14700
H797        H  0.27475229  0.06332707  0.72676803     0.46600
H798        H  0.29708763  0.10605712  0.63661717     0.42000
H799        H  0.35897795  0.04958316  0.53408404     0.45400
H800        H  0.28563050  0.02268241  0.58795909     0.36900
C801        C  0.29436729  0.94239821  0.82424836    -0.27300
C802        C  0.30633655  0.95626672  0.84722584     0.02300
C803        C  0.30670782  0.98025504  0.84225746     0.30300
C804        C  0.29524571  0.98995607  0.81488085    -0.19100
C805        C  0.28297057  0.97612099  0.79239188    -0.28500
C806        C  0.28256735  0.95218504  0.79716501     0.44400
C807        C  0.31865385  0.94551916  0.87587234     0.05600
O808        O  0.31798649  0.99441439  0.86423324    -0.57100
H809        H  0.29557607  0.00842921  0.81150201     0.18500
O810        O  0.27139566  0.93820201  0.77483096    -0.63800
H811        H  0.29434176  0.92389266  0.82712901     0.16900
C812        C  0.30743533  0.93000927  0.89743731     0.29200
C813        C  0.31967369  0.91924524  0.92328436    -0.24700
C814        C  0.34317164  0.92375902  0.92836942    -0.23900
C815        C  0.35415664  0.93998866  0.90750328     0.40700
C816        C  0.34198046  0.95046750  0.88136413    -0.26400
O817        O  0.28431570  0.92587064  0.89412123    -0.58300
H818        H  0.31066163  0.90730793  0.93941935     0.16300
O819        O  0.37701314  0.94510890  0.91147613    -0.59700
H820        H  0.35095005  0.96224252  0.86492527     0.14700
H821        H  0.25615123  0.93515821  0.78500773     0.46600
H822        H  0.28312918  0.91009557  0.88490223     0.42000
H823        H  0.37730621  0.95929337  0.92522474     0.45400
H824        H  0.30658042  0.99794537  0.88194551     0.36900
C825        C  0.83046078  0.98546820  0.75969409    -0.27300
C826        C  0.84193751  0.00666456  0.76001424     0.02300
C827        C  0.82899277  0.02708568  0.76138504     0.30300
C828        C  0.80491786  0.02614182  0.76204150    -0.19100
C829        C  0.79338179  0.00494967  0.76107111    -0.28500
C830        C  0.80637696  0.98449856  0.75996079     0.44400
C831        C  0.86739125  0.00729407  0.75811515     0.05600
O832        O  0.83974330  0.04804808  0.76202734    -0.57100
H833        H  0.79521310  0.04202518  0.76285298     0.18500
O834        O  0.79567802  0.96348590  0.76030397    -0.63800
H835        H  0.84021548  0.96961861  0.75873723     0.16900
C836        C  0.88105485  0.99754496  0.78351278     0.29200
C837        C  0.90508606  0.99808730  0.78094307    -0.24700
C838        C  0.91581324  0.00804392  0.75301772    -0.23900
C839        C  0.90213107  0.01756571  0.72744584     0.40700
C840        C  0.87811295  0.01732998  0.73024938    -0.26400
O841        O  0.87106186  0.98814232  0.81141356    -0.58300
H842        H  0.91542470  0.99071954  0.80079611     0.16300
O843        O  0.91209478  0.02702507  0.69957765    -0.59700
H844        H  0.86778568  0.02467299  0.71036486     0.14700
H845        H  0.79693774  0.95759308  0.73710035     0.46600
H846        H  0.87106247  0.97132738  0.80742909     0.42000
H847        H  0.91402324  0.01405975  0.68373045     0.45400
H848        H  0.84233279  0.05138286  0.78607422     0.36900
C849        C  0.99971928  0.17579137  0.76474078    -0.27300
C850        C  0.00590451  0.16429335  0.73521355     0.02300
C851        C  0.01151704  0.17733261  0.70662264     0.30300
C852        C  0.01081112  0.20140769  0.70789550    -0.19100
C853        C  0.00470550  0.21289269  0.73754388    -0.28500
C854        C  0.99904778  0.19978782  0.76606346     0.44400
C855        C  0.00601818  0.13874108  0.73470698     0.05600
O856        O  0.01784909  0.16674420  0.67739202    -0.57100
H857        H  0.01525276  0.21114752  0.68571812     0.18500
O858        O  0.99224748  0.21022625  0.79519182    -0.63800
H859        H  0.99492709  0.16608038  0.78679123     0.16900
C860        C  0.01786474  0.12617417  0.75950124     0.29200
C861        C  0.01631434  0.10220134  0.76034731    -0.24700
C862        C  0.00325141  0.09031084  0.73647329    -0.23900
C863        C  0.99209581  0.10270212  0.71094146     0.40700
C864        C  0.99337430  0.12675300  0.71031400    -0.26400
O865        O  0.03092793  0.13718111  0.78316236    -0.58300
H866        H  0.02523782  0.09280881  0.77984197     0.16300
O867        O  0.97965807  0.09146360  0.68681546    -0.59700
H868        H  0.98408983  0.13608274  0.69113100     0.14700
H869        H  0.97552897  0.21301677  0.79247707     0.46600
H870        H  0.04597828  0.13997946  0.77224194     0.42000
H871        H  0.99111927  0.08661119  0.66987763     0.45400
H872        H  0.03460750  0.16397864  0.67958285     0.36900
C873        C  0.12159057  0.98835904  0.72886788    -0.27300
C874        C  0.13409011  0.00501065  0.74673877     0.02300
C875        C  0.12190264  0.02195228  0.76475035     0.30300
C876        C  0.09776363  0.02158413  0.76536376    -0.19100
C877        C  0.08535471  0.00485292  0.74759037    -0.28500
C878        C  0.09753220  0.98842425  0.72872546     0.44400
C879        C  0.15973287  0.00461427  0.74538927     0.05600
O880        O  0.13336630  0.03968258  0.78008953    -0.57100
H881        H  0.08865286  0.03464122  0.77942078     0.18500
O882        O  0.08606882  0.97236431  0.70994932    -0.63800
H883        H  0.13054758  0.97523964  0.71473573     0.16900
C884        C  0.17331314  0.00559495  0.77463294     0.29200
C885        C  0.19733011  0.00438794  0.77242556    -0.24700
C886        C  0.20838360  0.00144031  0.74141348    -0.23900
C887        C  0.19473917  0.00000165  0.71224674     0.40700
C888        C  0.17078170  0.00189189  0.71437406    -0.26400
O889        O  0.16335802  0.00710701  0.80564372    -0.58300
H890        H  0.20734118  0.00565668  0.79521236     0.16300
O891        O  0.20451630  0.99619068  0.68152761    -0.59700
H892        H  0.16073052  0.00091627  0.69158373     0.14700
H893        H  0.08285459  0.98003938  0.68829575     0.46600
H894        H  0.15899496  0.99114222  0.81154894     0.42000
H895        H  0.20673596  0.97932097  0.68018946     0.45400
H896        H  0.12976988  0.03831830  0.80426662     0.36900
C897        C  0.08236549  0.70065321  0.60886221    -0.27300
C898        C  0.06510694  0.68974889  0.62754830     0.02300
C899        C  0.05948326  0.66676644  0.62026114     0.30300
C900        C  0.07124105  0.65496933  0.59493695    -0.19100
C901        C  0.08886745  0.66565032  0.57655099    -0.28500
C902        C  0.09421811  0.68885352  0.58360052     0.44400
C903        C  0.05298651  0.70256604  0.65441886     0.05600
O904        O  0.04183443  0.65602829  0.63683804    -0.57100
H905        H  0.06654168  0.63730359  0.58984260     0.18500
O906        O  0.11093194  0.70025653  0.56600130    -0.63800
H907        H  0.08678528  0.71838388  0.61406263     0.16900
C908        C  0.05305918  0.69460185  0.68768373     0.29200
C909        C  0.04132419  0.70679379  0.71257618    -0.24700
C910        C  0.02929222  0.72712427  0.70505053    -0.23900
C911        C  0.02932196  0.73511301  0.67159852     0.40700
C912        C  0.04131732  0.72300968  0.64679582    -0.26400
O913        O  0.06476737  0.67500553  0.69623778    -0.58300
H914        H  0.04189074  0.70040625  0.73801865     0.16300
O915        O  0.01722797  0.75437238  0.66255233    -0.59700
H916        H  0.04106639  0.72933267  0.62129344     0.14700
H917        H  0.10277705  0.70753948  0.54694721     0.46600
H918        H  0.08067378  0.68012610  0.70115054     0.42000
H919        H  0.00129171  0.74897610  0.65853922     0.45400
H920        H  0.04920851  0.64393475  0.65065305     0.36900
C921        C  0.94023344  0.66540867  0.88558694    -0.27300
C922        C  0.93926837  0.68940918  0.88239810     0.02300
C923        C  0.92490352  0.70195660  0.90419668     0.30300
C924        C  0.91160758  0.69052243  0.92821647    -0.19100
C925        C  0.91266401  0.66652612  0.93155666    -0.28500
C926        C  0.92718442  0.65398066  0.90989340     0.44400
C927        C  0.95278240  0.70118760  0.85580872     0.05600
O928        O  0.92390481  0.72547248  0.90248644    -0.57100
H929        H  0.90075228  0.70054050  0.94471410     0.18500
O930        O  0.92853261  0.63048739  0.91183611    -0.63800
H931        H  0.95084510  0.65540071  0.86875584     0.16900
C932        C  0.97661634  0.69740839  0.85202457     0.29200
C933        C  0.98892723  0.70918231  0.82715116    -0.24700
C934        C  0.97781653  0.72486939  0.80592422    -0.23900
C935        C  0.95397913  0.72833543  0.80931891     0.40700
C936        C  0.94166561  0.71650548  0.83395912    -0.26400
O937        O  0.98821484  0.68322650  0.87365981    -0.58300
H938        H  0.00730765  0.70650846  0.82499083     0.16300
O939        O  0.94255627  0.74331917  0.78867625    -0.59700
H940        H  0.92330245  0.71930690  0.83599855     0.14700
H941        H  0.91576953  0.62472616  0.89766235     0.46600
H942        H  0.99186636  0.66923981  0.86052411     0.42000
H943        H  0.93860115  0.73422836  0.76849669     0.45400
H944        H  0.93710563  0.73096580  0.91601547     0.36900
C945        C  0.99086832  0.88651199  0.78672852    -0.27300
C946        C  0.00116272  0.87436809  0.76032145     0.02300
C947        C  0.01043732  0.88657452  0.73308904     0.30300
C948        C  0.00962392  0.91060225  0.73270265    -0.19100
C949        C  0.99965895  0.92274384  0.75928372    -0.28500
C950        C  0.99010277  0.91059148  0.78634238     0.44400
C951        C  0.00200654  0.84895167  0.76111725     0.05600
O952        O  0.01954727  0.87507716  0.70622120    -0.57100
H953        H  0.01677629  0.91983342  0.71158692     0.18500
O954        O  0.98062732  0.92213924  0.81287353    -0.63800
H955        H  0.98366587  0.87729069  0.80781292     0.16900
C956        C  0.02318080  0.83719864  0.76185104     0.29200
C957        C  0.02363699  0.81314356  0.76095791    -0.24700
C958        C  0.00310758  0.80047628  0.75980732    -0.23900
C959        C  0.98192077  0.81228916  0.75940611     0.40700
C960        C  0.98148769  0.83633265  0.76030753    -0.26400
O961        O  0.04351057  0.84908758  0.76350187    -0.58300
H962        H  0.04004888  0.80433594  0.76152560     0.16300
O963        O  0.96154704  0.80049781  0.75737450    -0.59700
H964        H  0.96510134  0.84518748  0.75959494     0.14700
H965        H  0.96400694  0.92332522  0.80761270     0.46600
H966        H  0.04570310  0.85264162  0.78755983     0.42000
H967        H  0.95920245  0.79756236  0.73317573     0.45400
H968        H  0.03643713  0.87703054  0.70816166     0.36900
C969        C  0.81247703  0.53885227  0.84388317    -0.27300
C970        C  0.80598636  0.56159329  0.85090740     0.02300
C971        C  0.78842856  0.57180025  0.83153148     0.30300
C972        C  0.77785410  0.55936656  0.80575055    -0.19100
C973        C  0.78413176  0.53649747  0.79913070    -0.28500
C974        C  0.80142734  0.52620359  0.81885898     0.44400
C975        C  0.81756893  0.57435142  0.87851293     0.05600
O976        O  0.78123639  0.59382662  0.83779444    -0.57100
H977        H  0.76463572  0.56764878  0.79092372     0.18500
O978        O  0.80736651  0.50359741  0.81444150    -0.63800
H979        H  0.82615208  0.53073193  0.85797582     0.16900
C980        C  0.82086595  0.56419289  0.91027228     0.29200
C981        C  0.83234599  0.57629691  0.93557652    -0.24700
C982        C  0.84020773  0.59870807  0.93003594    -0.23900
C983        C  0.83663657  0.60906583  0.89868017     0.40700
C984        C  0.82574717  0.59678185  0.87304186    -0.26400
O985        O  0.81201619  0.54286636  0.91726596    -0.58300
H986        H  0.83473677  0.56830380  0.95982565     0.16300
O987        O  0.84469807  0.63079053  0.89240347    -0.59700
H988        H  0.82391896  0.60475311  0.84869430     0.14700
H989        H  0.79620867  0.49475531  0.82808951     0.46600
H990        H  0.82552425  0.53260285  0.91979000     0.42000
H991        H  0.83138449  0.64109738  0.89628273     0.45400
H992        H  0.76947915  0.59237728  0.85562586     0.36900
C993        C  0.81769580  0.48230023  0.65761639    -0.27300
C994        C  0.81068028  0.46020076  0.64799582     0.02300
C995        C  0.79178736  0.45001557  0.66434489     0.30300
C996        C  0.78053301  0.46170375  0.69013608    -0.19100
C997        C  0.78726709  0.48399695  0.69947235    -0.28500
C998        C  0.80598378  0.49431863  0.68268212     0.44400
C999        C  0.82324648  0.44779772  0.62116786     0.05600
O1000       O  0.78390268  0.42876849  0.65492217    -0.57100
H1001       H  0.76630401  0.45332283  0.70264083     0.18500
O1002       O  0.81266244  0.51637010  0.68988780    -0.63800
H1003       H  0.83226133  0.49037102  0.64549048     0.16900
C1004       C  0.82776417  0.45821820  0.58995275     0.29200
C1005       C  0.83967016  0.44605752  0.56515861    -0.24700
C1006       C  0.84658132  0.42328841  0.57068605    -0.23900
C1007       C  0.84216279  0.41289816  0.60175838     0.40700
C1008       C  0.83076744  0.42518621  0.62680513    -0.26400
O1009       O  0.82017933  0.48004704  0.58315075    -0.58300
H1010       H  0.84288272  0.45416204  0.54119785     0.16300
O1011       O  0.84911658  0.39078424  0.60797414    -0.59700
H1012       H  0.82785029  0.41702511  0.65079338     0.14700
H1013       H  0.80284507  0.52631031  0.67565646     0.46600
H1014       H  0.80425426  0.47811513  0.57472417     0.42000
H1015       H  0.86516195  0.39213696  0.61616168     0.45400
H1016       H  0.77298937  0.43174944  0.63634097     0.36900
C1017       C  0.54020716  0.22355405  0.85234702    -0.27300
C1018       C  0.55207426  0.20308803  0.84553575     0.02300
C1019       C  0.55264467  0.19471607  0.81249616     0.30300
C1020       C  0.54110433  0.20650333  0.78699748    -0.19100
C1021       C  0.52897445  0.22685100  0.79379402    -0.28500
C1022       C  0.52865067  0.23537275  0.82687151     0.44400
C1023       C  0.56333721  0.19029032  0.87314209     0.05600
O1024       O  0.56448770  0.17502373  0.80487023    -0.57100
H1025       H  0.54173983  0.19977126  0.76174251     0.18500
O1026       O  0.51656397  0.25486356  0.83482051    -0.63800
H1027       H  0.53940620  0.23008636  0.87770032     0.16900
C1028       C  0.58012049  0.20076639  0.89337390     0.29200
C1029       C  0.59070074  0.18825111  0.91904159    -0.24700
C1030       C  0.58465040  0.16524472  0.92536146    -0.23900
C1031       C  0.56769760  0.15482574  0.90510116     0.40700
C1032       C  0.55719607  0.16736035  0.87934543    -0.26400
O1033       O  0.58697846  0.22293595  0.88732833    -0.58300
H1034       H  0.60370135  0.19668091  0.93408518     0.16300
O1035       O  0.56138138  0.13236843  0.90991686    -0.59700
H1036       H  0.54416630  0.15912843  0.86410908     0.14700
H1037       H  0.50051368  0.24965819  0.83838449     0.46600
H1038       H  0.57957744  0.23229478  0.90504517     0.42000
H1039       H  0.57172062  0.12330070  0.89526103     0.45400
H1040       H  0.58035477  0.18015685  0.79974178     0.36900
C1041       C  0.44673659  0.17887777  0.59313621    -0.27300
C1042       C  0.43559996  0.18549691  0.62281904     0.02300
C1043       C  0.41196937  0.18059168  0.62664125     0.30300
C1044       C  0.39993019  0.16950586  0.60098396    -0.19100
C1045       C  0.41127351  0.16252744  0.57177457    -0.28500
C1046       C  0.43482183  0.16727382  0.56791352     0.44400
C1047       C  0.44876081  0.19779922  0.64918457     0.05600
O1048       O  0.40051444  0.18631297  0.65544613    -0.57100
H1049       H  0.38177509  0.16593255  0.60418014     0.18500
O1050       O  0.44621545  0.16114480  0.53921953    -0.63800
H1051       H  0.46470378  0.18298594  0.58925290     0.16900
C1052       C  0.47054221  0.18991171  0.65965870     0.29200
C1053       C  0.48334188  0.20260043  0.68278684    -0.24700
C1054       C  0.47455983  0.22296076  0.69666037    -0.23900
C1055       C  0.45225994  0.23020052  0.68748442     0.40700
C1056       C  0.43980243  0.21794109  0.66347347    -0.26400
O1057       O  0.47956718  0.16985104  0.64733935    -0.58300
H1058       H  0.50037572  0.19663264  0.68951452     0.16300
O1059       O  0.44238237  0.24918067  0.70187090    -0.59700
H1060       H  0.42315352  0.22439305  0.65575318     0.14700
H1061       H  0.44384587  0.17414061  0.52353713     0.46600
H1062       H  0.47317750  0.15755545  0.66177723     0.42000
H1063       H  0.43576199  0.24363162  0.72325173     0.45400
H1064       H  0.40331055  0.17333735  0.67101060     0.36900
C1065       C  0.21134548  0.46761864  0.85575147    -0.27300
C1066       C  0.19283744  0.45398998  0.84526111     0.02300
C1067       C  0.18745889  0.45280489  0.81099850     0.30300
C1068       C  0.20061223  0.46513628  0.78770638    -0.19100
C1069       C  0.21933762  0.47871280  0.79806271    -0.28500
C1070       C  0.22449018  0.47997599  0.83257981     0.44400
C1071       C  0.17905082  0.44151914  0.87055943     0.05600
O1072       O  0.16885904  0.44033480  0.80024083    -0.57100
H1073       H  0.19623153  0.46393426  0.76141824     0.18500
O1074       O  0.24200116  0.49362945  0.84411194    -0.63800
H1075       H  0.21553078  0.46877734  0.88212367     0.16900
C1076       C  0.17957334  0.41739314  0.87259415     0.29200
C1077       C  0.16737497  0.40607623  0.89794084    -0.24700
C1078       C  0.15428714  0.41850846  0.92134849    -0.23900
C1079       C  0.15347992  0.44267203  0.91883844     0.40700
C1080       C  0.16604201  0.45397709  0.89386075    -0.26400
O1081       O  0.19219313  0.40475704  0.85020337    -0.58300
H1082       H  0.16809926  0.38749328  0.89921526     0.16300
O1083       O  0.14134608  0.45548231  0.94157541    -0.59700
H1084       H  0.16567153  0.47257507  0.89268533     0.14700
H1085       H  0.23498348  0.50898687  0.84746331     0.46600
H1086       H  0.20774317  0.40354310  0.86024178     0.42000
H1087       H  0.12640240  0.45875003  0.93058865     0.45400
H1088       H  0.17536117  0.42594213  0.79092899     0.36900
C1089       C  0.19644380  0.58308565  0.60112430    -0.27300
C1090       C  0.18538260  0.56660580  0.62108295     0.02300
C1091       C  0.16145729  0.56357292  0.61777113     0.30300
C1092       C  0.14909009  0.57661922  0.59439701    -0.19100
C1093       C  0.16014566  0.59300408  0.57417274    -0.28500
C1094       C  0.18408819  0.59619365  0.57783762     0.44400
C1095       C  0.19882061  0.55344500  0.64626451     0.05600
O1096       O  0.14984790  0.54884890  0.63860888    -0.57100
H1097       H  0.13067867  0.57409627  0.59248048     0.18500
O1098       O  0.19567800  0.61196178  0.55872198    -0.63800
H1099       H  0.21481927  0.58571532  0.60348247     0.16900
C1100       C  0.19811559  0.52922501  0.64748534     0.29200
C1101       C  0.20973762  0.51741526  0.67293091    -0.24700
C1102       C  0.22285016  0.52937935  0.69668778    -0.23900
C1103       C  0.22452176  0.55345125  0.69450795     0.40700
C1104       C  0.21239344  0.56531884  0.66963868    -0.26400
O1105       O  0.18629396  0.51692692  0.62380060    -0.58300
H1106       H  0.20874219  0.49883505  0.67393107     0.16300
O1107       O  0.23709983  0.56558222  0.71755010    -0.59700
H1108       H  0.21325304  0.58391032  0.66898412     0.14700
H1109       H  0.20079297  0.60338267  0.53861465     0.46600
H1110       H  0.19706992  0.51536205  0.60471941     0.42000
H1111       H  0.25200873  0.56877742  0.70646328     0.45400
H1112       H  0.14416199  0.53626274  0.62404753     0.36900
C1113       C  0.62388794  0.49942855  0.77237666    -0.27300
C1114       C  0.63588214  0.50779342  0.74428885     0.02300
C1115       C  0.62291644  0.51549970  0.71641501     0.30300
C1116       C  0.59888161  0.51411056  0.71679154    -0.19100
C1117       C  0.58716356  0.50698394  0.74561646    -0.28500
C1118       C  0.59989904  0.50009244  0.77377878     0.44400
C1119       C  0.66165257  0.50857075  0.74467932     0.05600
O1120       O  0.63336433  0.52498419  0.68894654    -0.57100
H1121       H  0.58927691  0.51944320  0.69488130     0.18500
O1122       O  0.58897807  0.49345813  0.80261413    -0.63800
H1123       H  0.63303449  0.49242154  0.79363030     0.16900
C1124       C  0.67397822  0.51417409  0.77406258     0.29200
C1125       C  0.69799671  0.51363430  0.77429265    -0.24700
C1126       C  0.71067776  0.50962014  0.74488281    -0.23900
C1127       C  0.69827998  0.50536853  0.71497387     0.40700
C1128       C  0.67426934  0.50372183  0.71552227    -0.26400
O1129       O  0.66285659  0.52061005  0.80281762    -0.58300
H1130       H  0.70657371  0.51659238  0.79791708     0.16300
O1131       O  0.70917643  0.50336163  0.68470795    -0.59700
H1132       H  0.66559394  0.49881724  0.69266807     0.14700
H1133       H  0.58722962  0.50774429  0.81587642     0.46600
H1134       H  0.66033794  0.53739532  0.80054387     0.42000
H1135       H  0.71094619  0.51933388  0.67643902     0.45400
H1136       H  0.63528949  0.54148645  0.69445781     0.36900
C1137       C  0.48712323  0.38540951  0.75600234    -0.27300
C1138       C  0.50128513  0.37355308  0.73332693     0.02300
C1139       C  0.51512559  0.38641389  0.71108732     0.30300
C1140       C  0.51491690  0.41045948  0.71229964    -0.19100
C1141       C  0.50184764  0.42210745  0.73643996    -0.28500
C1142       C  0.48787109  0.40933503  0.75837745     0.44400
C1143       C  0.50216855  0.34794216  0.73422721     0.05600
O1144       O  0.52941602  0.37574569  0.68866364    -0.57100
H1145       H  0.52553533  0.42006581  0.69497450     0.18500
O1146       O  0.47497997  0.42010750  0.78245492    -0.63800
H1147       H  0.47569167  0.37609233  0.77250505     0.16900
C1148       C  0.50355889  0.33604620  0.76495223     0.29200
C1149       C  0.50440342  0.31205176  0.76541545    -0.24700
C1150       C  0.50454436  0.29928341  0.73561651    -0.23900
C1151       C  0.50387375  0.31118502  0.70481817     0.40700
C1152       C  0.50207252  0.33518092  0.70435593    -0.26400
O1153       O  0.50517282  0.34773535  0.79469073    -0.58300
H1154       H  0.50480596  0.30343131  0.78943059     0.16300
O1155       O  0.50539724  0.29966728  0.67496800    -0.59700
H1156       H  0.50073702  0.34381057  0.68043124     0.14700
H1157       H  0.48525360  0.42133969  0.80218405     0.46600
H1158       H  0.49059119  0.34456422  0.80671683     0.42000
H1159       H  0.52209948  0.29750171  0.67108705     0.45400
H1160       H  0.54367806  0.37235679  0.70135877     0.36900
C1161       C  0.38225217  0.49155945  0.77732485    -0.27300
C1162       C  0.36978583  0.50464617  0.75393760     0.02300
C1163       C  0.38193670  0.51798195  0.73031166     0.30300
C1164       C  0.40597527  0.51838503  0.73069445    -0.19100
C1165       C  0.41830264  0.50530596  0.75402363    -0.28500
C1166       C  0.40632653  0.49169889  0.77730203     0.44400
C1167       C  0.34420378  0.50449100  0.75442291     0.05600
O1168       O  0.37049684  0.53048424  0.70644204    -0.57100
H1169       H  0.41508309  0.52872002  0.71245506     0.18500
O1170       O  0.41802974  0.47842682  0.79999735    -0.63800
H1171       H  0.37332013  0.48140824  0.79593447     0.16900
C1172       C  0.33170910  0.48372472  0.75495459     0.29200
C1173       C  0.30761730  0.48412220  0.75437945    -0.24700
C1174       C  0.29558719  0.50501497  0.75313623    -0.23900
C1175       C  0.30805320  0.52577259  0.75313350     0.40700
C1176       C  0.33210282  0.52539414  0.75393945    -0.26400
O1177       O  0.34288539  0.46296616  0.75415573    -0.58300
H1178       H  0.29829997  0.46800289  0.75405541     0.16300
O1179       O  0.29690578  0.54653985  0.75242639    -0.59700
H1180       H  0.34135150  0.54154926  0.75424164     0.14700
H1181       H  0.42112032  0.48872809  0.81923862     0.46600
H1182       H  0.34073747  0.45624437  0.77674571     0.42000
H1183       H  0.29383124  0.55033653  0.77619137     0.45400
H1184       H  0.36731300  0.51947312  0.68808420     0.36900
C1185       C  0.47184556  0.82275786  0.84248849    -0.27300
C1186       C  0.45110521  0.81388361  0.85489642     0.02300
C1187       C  0.44323958  0.79251996  0.84293801     0.30300
C1188       C  0.45581975  0.78061953  0.81860271    -0.19100
C1189       C  0.47671676  0.78937631  0.80622825    -0.28500
C1190       C  0.48478748  0.81059308  0.81888108     0.44400
C1191       C  0.43804283  0.82686963  0.88066206     0.05600
O1192       O  0.42339623  0.78295206  0.85516101    -0.57100
H1193       H  0.44909164  0.76448172  0.80933921     0.18500
O1194       O  0.50553627  0.81946357  0.80894384    -0.63800
H1195       H  0.47817027  0.83917384  0.85136076     0.16900
C1196       C  0.44889770  0.83461837  0.91013574     0.29200
C1197       C  0.43645742  0.84714658  0.93387606    -0.24700
C1198       C  0.41299794  0.85165960  0.92919553    -0.23900
C1199       C  0.40205160  0.84392828  0.89987874     0.40700
C1200       C  0.41458337  0.83169229  0.87580756    -0.26400
O1201       O  0.47159398  0.82974943  0.91622682    -0.58300
H1202       H  0.44506170  0.85295683  0.95639928     0.16300
O1203       O  0.37928281  0.84870108  0.89418556    -0.59700
H1204       H  0.40602686  0.82618886  0.85309727     0.14700
H1205       H  0.51700766  0.81280117  0.82454826     0.46600
H1206       H  0.47156950  0.81445494  0.92717095     0.42000
H1207       H  0.37918227  0.86369494  0.88238941     0.45400
H1208       H  0.42798452  0.77511945  0.87617588     0.36900
C1209       C  0.53816246  0.79252706  0.64511835    -0.27300
C1210       C  0.54936190  0.81326259  0.65260491     0.02300
C1211       C  0.54881071  0.82159397  0.68565781     0.30300
C1212       C  0.53750403  0.80911251  0.71068692    -0.19100
C1213       C  0.52635924  0.78823720  0.70339905    -0.28500
C1214       C  0.52654675  0.78016398  0.67005149     0.44400
C1215       C  0.56172979  0.82605972  0.62594056     0.05600
O1216       O  0.55948021  0.84184565  0.69384568    -0.57100
H1217       H  0.53769971  0.81568814  0.73604188     0.18500
O1218       O  0.51505445  0.76048139  0.66131850    -0.63800
H1219       H  0.53812802  0.78608257  0.61968977     0.16900
C1220       C  0.58034665  0.81607692  0.60880735     0.29200
C1221       C  0.59238256  0.82873858  0.58462601    -0.24700
C1222       C  0.58600323  0.85142804  0.57667683    -0.23900
C1223       C  0.56709359  0.86128353  0.59374796     0.40700
C1224       C  0.55520988  0.84862177  0.61806925    -0.26400
O1225       O  0.58751865  0.79426385  0.61656448    -0.58300
H1226       H  0.60679581  0.82069368  0.57209414     0.16300
O1227       O  0.55998085  0.88326761  0.58697896    -0.59700
H1228       H  0.54081825  0.85648567  0.63092330     0.14700
H1229       H  0.49882550  0.76524017  0.65815787     0.46600
H1230       H  0.58085242  0.78428748  0.59894436     0.42000
H1231       H  0.56845249  0.89311533  0.60305154     0.45400
H1232       H  0.57579738  0.83771384  0.69780812     0.36900
C1233       C  0.51649324  0.62675723  0.78487683    -0.27300
C1234       C  0.50113973  0.63931749  0.76470164     0.02300
C1235       C  0.48529051  0.62711123  0.74464820     0.30300
C1236       C  0.48590494  0.60307126  0.74351347    -0.19100
C1237       C  0.50139003  0.59057207  0.76342436    -0.28500
C1238       C  0.51631599  0.60266955  0.78494250     0.44400
C1239       C  0.50233908  0.66497638  0.76369886     0.05600
O1240       O  0.46907936  0.63850112  0.72601534    -0.57100
H1241       H  0.47413208  0.59410496  0.72704212     0.18500
O1242       O  0.53124230  0.59110526  0.80551191    -0.63800
H1243       H  0.52898880  0.63560738  0.80028318     0.16900
C1244       C  0.50411220  0.67825395  0.79314159     0.29200
C1245       C  0.50556108  0.70228275  0.79120445    -0.24700
C1246       C  0.50457427  0.71375236  0.76020842    -0.23900
C1247       C  0.50256034  0.70041181  0.73081056     0.40700
C1248       C  0.50195084  0.67639846  0.73271612    -0.26400
O1249       O  0.50405294  0.66800068  0.82404117    -0.58300
H1250       H  0.50724997  0.71197383  0.81420218     0.16300
O1251       O  0.50055700  0.71058372  0.69999198    -0.59700
H1252       H  0.50102179  0.66665860  0.70966840     0.14700
H1253       H  0.52201697  0.58681069  0.82541265     0.46600
H1254       H  0.48765978  0.66749450  0.83082265     0.42000
H1255       H  0.48393366  0.71395670  0.69736182     0.45400
H1256       H  0.45503485  0.63862853  0.74007554     0.36900
C1257       C  0.18461251  0.45417890  0.17847268    -0.27300
C1258       C  0.19222224  0.45562977  0.14522163     0.02300
C1259       C  0.21138960  0.46949185  0.13773696     0.30300
C1260       C  0.22258378  0.48163702  0.16333219    -0.19100
C1261       C  0.21508024  0.48010461  0.19671437    -0.28500
C1262       C  0.19595430  0.46605238  0.20411299     0.44400
C1263       C  0.17966157  0.44292185  0.11862675     0.05600
O1264       O  0.21855453  0.47216318  0.10525862    -0.57100
H1265       H  0.23698557  0.49258972  0.15693138     0.18500
O1266       O  0.18836125  0.46348890  0.23637936    -0.63800
H1267       H  0.16994562  0.44351201  0.18464432     0.16900
C1268       C  0.19077473  0.42648349  0.09843912     0.29200
C1269       C  0.17840040  0.41455042  0.07383782    -0.24700
C1270       C  0.15480134  0.41864046  0.06887862    -0.23900
C1271       C  0.14366943  0.43498388  0.08942413     0.40700
C1272       C  0.15606021  0.44680545  0.11409257    -0.26400
O1273       O  0.21366019  0.42168227  0.10287666    -0.58300
H1274       H  0.18736783  0.40207817  0.05853324     0.16300
O1275       O  0.12051551  0.43900512  0.08647982    -0.59700
H1276       H  0.14719224  0.45918173  0.12970164     0.14700
H1277       H  0.19811111  0.45120070  0.24610468     0.46600
H1278       H  0.21413697  0.40960176  0.12035481     0.42000
H1279       H  0.11922313  0.45303965  0.07251743     0.45400
H1280       H  0.23361372  0.46421885  0.10391028     0.36900
C1281       C  0.19143539  0.57960929  0.40195727    -0.27300
C1282       C  0.17868225  0.56753385  0.37779901     0.02300
C1283       C  0.15446713  0.56745619  0.38016050     0.30300
C1284       C  0.14349169  0.57925222  0.40619618    -0.19100
C1285       C  0.15625394  0.59180999  0.42974006    -0.28500
C1286       C  0.18044191  0.59182201  0.42753378     0.44400
C1287       C  0.19076949  0.55506658  0.35040810     0.05600
O1288       O  0.14131048  0.55627622  0.35678790    -0.57100
H1289       H  0.12487813  0.57911042  0.40740965     0.18500
O1290       O  0.19355346  0.60347340  0.45048003    -0.63800
H1291       H  0.21004758  0.57943599  0.40120460     0.16900
C1292       C  0.20809337  0.56584506  0.33132704     0.29200
C1293       C  0.21930651  0.55371177  0.30583279    -0.24700
C1294       C  0.21358817  0.53077574  0.29882996    -0.23900
C1295       C  0.19630011  0.51998314  0.31786437     0.40700
C1296       C  0.18510291  0.53208156  0.34339002    -0.26400
O1297       O  0.21353419  0.58851136  0.33651665    -0.58300
H1298       H  0.23246092  0.56232655  0.29130321     0.16300
O1299       O  0.19055521  0.49745369  0.31225258    -0.59700
H1300       H  0.17219255  0.52331076  0.35815908     0.14700
H1301       H  0.19550748  0.59269009  0.46948666     0.46600
H1302       H  0.22904771  0.58840753  0.34684691     0.42000
H1303       H  0.20196848  0.48835304  0.32508431     0.45400
H1304       H  0.13877952  0.56766367  0.33869328     0.36900
C1305       C  0.44560239  0.81787598  0.18450346    -0.27300
C1306       C  0.45147335  0.81527763  0.15066851     0.02300
C1307       C  0.47012036  0.80106873  0.14192875     0.30300
C1308       C  0.48249376  0.78953237  0.16685966    -0.19100
C1309       C  0.47670123  0.79221124  0.20071119    -0.28500
C1310       C  0.45821701  0.80662173  0.20949882     0.44400
C1311       C  0.43840038  0.82783821  0.12466295     0.05600
O1312       O  0.47630615  0.79831461  0.10906544    -0.57100
H1313       H  0.49671938  0.77852985  0.15979445     0.18500
O1314       O  0.45183135  0.80907424  0.24233781    -0.63800
H1315       H  0.43133628  0.82882840  0.19154074     0.16900
C1316       C  0.41505266  0.82308553  0.11859274     0.29200
C1317       C  0.40316090  0.83509804  0.09353025    -0.24700
C1318       C  0.41416085  0.85229750  0.07462535    -0.23900
C1319       C  0.43758124  0.85706647  0.08109036     0.40700
C1320       C  0.44948652  0.84475339  0.10569535    -0.26400
O1321       O  0.40396476  0.80618714  0.13625146    -0.58300
H1322       H  0.38523462  0.83105063  0.08910213     0.16300
O1323       O  0.44928334  0.87321968  0.06282604    -0.59700
H1324       H  0.46747644  0.84853124  0.11015106     0.14700
H1325       H  0.45881757  0.82376902  0.24970832     0.46600
H1326       H  0.39589594  0.81429815  0.15462423     0.42000
H1327       H  0.44890879  0.88737573  0.07664170     0.45400
H1328       H  0.46730471  0.78492700  0.10107415     0.36900
C1329       C  0.56054812  0.80005861  0.33554322    -0.27300
C1330       C  0.54875748  0.81670621  0.35439745     0.02300
C1331       C  0.52534412  0.82085679  0.34739245     0.30300
C1332       C  0.51424130  0.80864450  0.32187444    -0.19100
C1333       C  0.52598891  0.79183384  0.30335794    -0.28500
C1334       C  0.54934251  0.78758807  0.31041566     0.44400
C1335       C  0.56105748  0.82950840  0.38125643     0.05600
O1336       O  0.51303580  0.83655830  0.36565556    -0.57100
H1337       H  0.49623593  0.81203288  0.31691073     0.18500
O1338       O  0.56148674  0.77153073  0.29257124    -0.63800
H1339       H  0.57863479  0.79685565  0.34007023     0.16900
C1340       C  0.57446348  0.81780335  0.40523202     0.29200
C1341       C  0.58660854  0.83011585  0.42953152    -0.24700
C1342       C  0.58524559  0.85417341  0.43114531    -0.23900
C1343       C  0.57158261  0.86593048  0.40755150     0.40700
C1344       C  0.55975131  0.85361984  0.38277525    -0.26400
O1345       O  0.57563709  0.79426585  0.40540482    -0.58300
H1346       H  0.59684947  0.82072485  0.44760384     0.16300
O1347       O  0.57005221  0.88944671  0.40798382    -0.59700
H1348       H  0.54983271  0.86300162  0.36433219     0.14700
H1349       H  0.56713297  0.77977377  0.27247085     0.46600
H1350       H  0.56234659  0.78918446  0.41906031     0.42000
H1351       H  0.58292585  0.89488903  0.39377342     0.45400
H1352       H  0.50666155  0.82776964  0.38477220     0.36900
C1353       C  0.80029653  0.53761643  0.15369173    -0.27300
C1354       C  0.80058556  0.56178033  0.15380619     0.02300
C1355       C  0.78869026  0.57358713  0.17935951     0.30300
C1356       C  0.77659863  0.56130278  0.20382050    -0.19100
C1357       C  0.77660085  0.53723195  0.20373002    -0.28500
C1358       C  0.78856995  0.52537620  0.17852889     0.44400
C1359       C  0.81324134  0.57448259  0.12722163     0.05600
O1360       O  0.78896232  0.59712580  0.18088050    -0.57100
H1361       H  0.76742934  0.57056600  0.22317989     0.18500
O1362       O  0.78869651  0.50181061  0.17780361    -0.63800
H1363       H  0.80894122  0.52817547  0.13403290     0.16900
C1364       C  0.83619266  0.56899841  0.11929933     0.29200
C1365       C  0.84784111  0.58136352  0.09448842    -0.24700
C1366       C  0.83704585  0.59936275  0.07696311    -0.23900
C1367       C  0.81398632  0.60473942  0.08479385     0.40700
C1368       C  0.80232483  0.59231780  0.10960222    -0.26400
O1369       O  0.84775794  0.55230125  0.13678352    -0.58300
H1370       H  0.86556958  0.57691703  0.08928000     0.16300
O1371       O  0.80262612  0.62212074  0.06855203    -0.59700
H1372       H  0.78456285  0.59656519  0.11493120     0.14700
H1373       H  0.77428010  0.49743160  0.16618145     0.46600
H1374       H  0.84950798  0.53928815  0.12096633     0.42000
H1375       H  0.79470038  0.61460937  0.04948563     0.45400
H1376       H  0.80341142  0.60106431  0.19276654     0.36900
C1377       C  0.80373029  0.42928110  0.39453895    -0.27300
C1378       C  0.81416407  0.44727136  0.37689704     0.02300
C1379       C  0.83714608  0.45303562  0.38380631     0.30300
C1380       C  0.84942943  0.44078951  0.40808624    -0.19100
C1381       C  0.83922469  0.42245337  0.42554265    -0.28500
C1382       C  0.81609131  0.41672781  0.41843846     0.44400
C1383       C  0.80089765  0.46001042  0.35137626     0.05600
O1384       O  0.84740661  0.47121981  0.36784196    -0.57100
H1385       H  0.86707349  0.44567120  0.41308243     0.18500
O1386       O  0.80518245  0.39924555  0.43508758    -0.63800
H1387       H  0.78598399  0.42478884  0.38946343     0.16900
C1388       C  0.80733154  0.45932258  0.31749233     0.29200
C1389       C  0.79476675  0.47177696  0.29374589    -0.24700
C1390       C  0.77580075  0.48520433  0.30330990    -0.23900
C1391       C  0.76933267  0.48575993  0.33736542     0.40700
C1392       C  0.78173913  0.47304149  0.36101740    -0.26400
O1393       O  0.82532149  0.44577403  0.30727594    -0.58300
H1394       H  0.79977431  0.47077376  0.26768110     0.16300
O1395       O  0.75124008  0.49901409  0.34795053    -0.59700
H1396       H  0.77668281  0.47370069  0.38709273     0.14700
H1397       H  0.80667025  0.38564872  0.42028671     0.46600
H1398       H  0.83754155  0.45659223  0.30009626     0.42000
H1399       H  0.75782195  0.51451422  0.35172844     0.45400
H1400       H  0.85930321  0.46434728  0.35315601     0.36900
C1401       C  0.32455968  0.52808406  0.25173057    -0.27300
C1402       C  0.33710715  0.50753344  0.25297703     0.02300
C1403       C  0.32531135  0.48640883  0.25282602     0.30300
C1404       C  0.30124371  0.48606821  0.25119018    -0.19100
C1405       C  0.28867213  0.50666021  0.24996864    -0.28500
C1406       C  0.30055040  0.52777192  0.25017992     0.44400
C1407       C  0.36251624  0.50843035  0.25345287     0.05600
O1408       O  0.33715353  0.46604372  0.25407909    -0.57100
H1409       H  0.29235085  0.46971117  0.25122492     0.18500
O1410       O  0.28884805  0.54820631  0.24853396    -0.63800
H1411       H  0.33345283  0.54444290  0.25188805     0.16900
C1412       C  0.37465350  0.51824518  0.22654193     0.29200
C1413       C  0.39868134  0.51919817  0.22732014    -0.24700
C1414       C  0.41084421  0.51058063  0.25486270    -0.23900
C1415       C  0.39875819  0.50087808  0.28188991     0.40700
C1416       C  0.37471242  0.49974851  0.28101201    -0.26400
O1417       O  0.36316530  0.52606624  0.19880239    -0.58300
H1418       H  0.40789225  0.52641509  0.20623578     0.16300
O1419       O  0.41034734  0.49224986  0.30902255    -0.59700
H1420       H  0.36554220  0.49225996  0.30193262     0.14700
H1421       H  0.28652821  0.55111825  0.22432025     0.46600
H1422       H  0.36237277  0.54298092  0.20152037     0.42000
H1423       H  0.41321855  0.50568300  0.32369725     0.45400
H1424       H  0.34149506  0.46271909  0.23058651     0.36900
C1425       C  0.50881662  0.63129794  0.27608345    -0.27300
C1426       C  0.49733250  0.64356112  0.25082559     0.02300
C1427       C  0.48526857  0.63132093  0.22591801     0.30300
C1428       C  0.48461502  0.60724638  0.22682789    -0.19100
C1429       C  0.49590165  0.59508534  0.25228540    -0.28500
C1430       C  0.50824804  0.60725434  0.27684293     0.44400
C1431       C  0.49841355  0.66906755  0.25059596     0.05600
O1432       O  0.47514396  0.64270928  0.19968065    -0.57100
H1433       H  0.47549294  0.59799873  0.20739516     0.18500
O1434       O  0.51942429  0.59574834  0.30202130    -0.63800
H1435       H  0.51817085  0.64042145  0.29540598     0.16900
C1436       C  0.47824440  0.68249812  0.24975878     0.29200
C1437       C  0.47974791  0.70648588  0.24939347    -0.24700
C1438       C  0.50118276  0.71755099  0.25064981    -0.23900
C1439       C  0.52135300  0.70416785  0.25199269     0.40700
C1440       C  0.51986662  0.68014141  0.25202520    -0.26400
O1441       O  0.45694661  0.67238894  0.24997875    -0.58300
H1442       H  0.46405753  0.71652512  0.24879199     0.16300
O1443       O  0.54260019  0.71437906  0.25279821    -0.59700
H1444       H  0.53554670  0.67009414  0.25278147     0.14700
H1445       H  0.53583311  0.59549408  0.29530073     0.46600
H1446       H  0.45362598  0.66920426  0.27387354     0.42000
H1447       H  0.54638590  0.71769564  0.22909968     0.45400
H1448       H  0.45839225  0.63993816  0.20202646     0.36900
C1449       C  0.66528032  0.53118890  0.25731889    -0.27300
C1450       C  0.65339950  0.51050797  0.25210821     0.02300
C1451       C  0.66595119  0.49015374  0.24650893     0.30300
C1452       C  0.69001614  0.49066163  0.24654915    -0.19100
C1453       C  0.70184623  0.51136304  0.25174650    -0.28500
C1454       C  0.68933224  0.53174361  0.25688103     0.44400
C1455       C  0.62793706  0.51039542  0.25243253     0.05600
O1456       O  0.65485540  0.46967094  0.24127749    -0.57100
H1457       H  0.69949337  0.47487955  0.24244207     0.18500
O1458       O  0.70050537  0.55209927  0.26277585    -0.63800
H1459       H  0.65585719  0.54698989  0.26150715     0.16900
C1460       C  0.61560668  0.51864424  0.28031814     0.29200
C1461       C  0.59154793  0.51869385  0.27988557    -0.24700
C1462       C  0.57954599  0.51037988  0.25199781    -0.23900
C1463       C  0.59177780  0.50210949  0.22417827     0.40700
C1464       C  0.61582886  0.50221682  0.22446400    -0.26400
O1465       O  0.62692138  0.52650133  0.30817729    -0.58300
H1466       H  0.58220038  0.52502480  0.30144195     0.16300
O1467       O  0.58031893  0.49444902  0.19633562    -0.59700
H1468       H  0.62506909  0.49610244  0.20268376     0.14700
H1469       H  0.70025698  0.56038123  0.24109934     0.46600
H1470       H  0.62913232  0.51276354  0.32250485     0.42000
H1471       H  0.57856252  0.47765728  0.19965273     0.45400
H1472       H  0.65241843  0.46312736  0.26390999     0.36900
C1473       C  0.55089023  0.16986189  0.11360537    -0.27300
C1474       C  0.55738249  0.19252036  0.12064343     0.02300
C1475       C  0.57579738  0.20246788  0.10317471     0.30300
C1476       C  0.58760766  0.18968157  0.07905665    -0.19100
C1477       C  0.58114956  0.16693788  0.07166356    -0.28500
C1478       C  0.56244926  0.15710981  0.08914630     0.44400
C1479       C  0.54512877  0.20545489  0.14686228     0.05600
O1480       O  0.58294998  0.22435106  0.11053788    -0.57100
H1481       H  0.60191303  0.19765885  0.06617429     0.18500
O1482       O  0.55575204  0.13486340  0.08340754    -0.63800
H1483       H  0.53676292  0.16205236  0.12713417     0.16900
C1484       C  0.53114014  0.22435078  0.13870707     0.29200
C1485       C  0.51955375  0.23625362  0.16401020    -0.24700
C1486       C  0.52176611  0.22957311  0.19767537    -0.23900
C1487       C  0.53617463  0.21084466  0.20573487     0.40700
C1488       C  0.54746019  0.19876827  0.18035083    -0.26400
O1489       O  0.52862200  0.23122788  0.10608152    -0.58300
H1490       H  0.50859237  0.25057970  0.15726240     0.16300
O1491       O  0.53976726  0.20450398  0.23837545    -0.59700
H1492       H  0.55840608  0.18436760  0.18684570     0.14700
H1493       H  0.54278757  0.13598465  0.06735087     0.46600
H1494       H  0.51617326  0.22144804  0.09688590     0.42000
H1495       H  0.55239643  0.21453339  0.24641028     0.45400
H1496       H  0.57668869  0.23412154  0.09235667     0.36900
C1497       C  0.46767733  0.22097871  0.36001972    -0.27300
C1498       C  0.44830092  0.20774913  0.35169763     0.02300
C1499       C  0.44150991  0.20615586  0.31789475     0.30300
C1500       C  0.45416477  0.21745907  0.29306108    -0.19100
C1501       C  0.47351420  0.23060636  0.30147774    -0.28500
C1502       C  0.48025783  0.23233677  0.33519500     0.44400
C1503       C  0.43556912  0.19534600  0.37832936     0.05600
O1504       O  0.42260264  0.19351043  0.30886657    -0.57100
H1505       H  0.44874523  0.21615220  0.26718451     0.18500
O1506       O  0.49915497  0.24505122  0.34408702    -0.63800
H1507       H  0.47300528  0.22258701  0.38588819     0.16900
C1508       C  0.44695798  0.17979480  0.39964356     0.29200
C1509       C  0.43453236  0.16755666  0.42376422    -0.24700
C1510       C  0.41071337  0.17076157  0.42749990    -0.23900
C1511       C  0.39938829  0.18663348  0.40649320     0.40700
C1512       C  0.41181586  0.19876648  0.38220083    -0.26400
O1513       O  0.47004337  0.17561851  0.39597808    -0.58300
H1514       H  0.44361208  0.15543251  0.43955219     0.16300
O1515       O  0.37611318  0.19004269  0.40886669    -0.59700
H1516       H  0.40283864  0.21080796  0.36615979     0.14700
H1517       H  0.51244464  0.23455036  0.34123867     0.46600
H1518       H  0.47755106  0.18374674  0.41485936     0.42000
H1519       H  0.36913048  0.17811407  0.39433457     0.45400
H1520       H  0.42854586  0.17784557  0.30434023     0.36900
C1521       C  0.50594064  0.39029934  0.22334462    -0.27300
C1522       C  0.49531428  0.37787882  0.24916322     0.02300
C1523       C  0.48417707  0.38981372  0.27518211     0.30300
C1524       C  0.48415262  0.41383188  0.27546444    -0.19100
C1525       C  0.49505288  0.42621363  0.24990806    -0.28500
C1526       C  0.50577723  0.41432393  0.22352538     0.44400
C1527       C  0.49623799  0.35249438  0.24903420     0.05600
O1528       O  0.47328081  0.37814591  0.30042484    -0.57100
H1529       H  0.47572290  0.42286582  0.29574123     0.18500
O1530       O  0.51641283  0.42606764  0.19812658    -0.63800
H1531       H  0.51461594  0.38132331  0.20323402     0.16900
C1532       C  0.48759919  0.33980868  0.22179623     0.29200
C1533       C  0.48892048  0.31581565  0.22202174    -0.24700
C1534       C  0.49840886  0.30418693  0.24949848    -0.23900
C1535       C  0.50703732  0.31685116  0.27674607     0.40700
C1536       C  0.50594063  0.34084561  0.27636420    -0.26400
O1537       O  0.47745061  0.35069825  0.19517061    -0.58300
H1538       H  0.48202680  0.30621845  0.20106118     0.16300
O1539       O  0.51664630  0.30592399  0.30376372    -0.59700
H1540       H  0.51281633  0.35041854  0.29735697     0.14700
H1541       H  0.50405852  0.42950278  0.18176747     0.46600
H1542       H  0.46097233  0.35202402  0.20123622     0.42000
H1543       H  0.53293808  0.30328875  0.29751421     0.45400
H1544       H  0.45790554  0.37421261  0.29134392     0.36900
loop_ 
_geom_bond_atom_site_label_1 
_geom_bond_atom_site_label_2 
_geom_bond_distance 
_geom_bond_site_symmetry_2 
_ccdc_geom_bond_type 
C1            C2   1.402       .  A
C1            C6   1.401       .  A
C1         C1534   1.475       .  S
C2            C3   1.405       .  A
C2            H7   1.084       .  S
C3            C4   1.407       .  A
C3         C1486   1.484       .  S
C4            C5   1.402       .  A
C4            H8   1.084       .  S
C5            C6   1.400       .  A
C5         C1501   1.476       .  S
C6            H9   1.084       .  S
N10          C15   1.352       .  A
N10          C14   1.352       .  A
N10          H42   1.040       .  S
N11          C18   1.350       .  A
N11          C19   1.350       .  A
N12          C17   1.352       .  A
N12          C16   1.353       .  A
N12          H43   1.039       .  S
N13          C20   1.352       .  A
N13          C21   1.351       .  A
C14          C22   1.386       .  A
C14          C30   1.411       .  A
C15          C31   1.414       .  A
C15          C23   1.387       .  A
C16          C24   1.387       .  A
C16          C33   1.413       .  A
C17          C32   1.413       .  A
C17          C25   1.387       .  A
C18          C30   1.409       .  A
C18          C26   1.386       .  A
C19          C33   1.411       .  A
C19          C27   1.386       .  A
C20          C28   1.386       .  A
C20          C31   1.413       .  A
C21          C29   1.386       .  A
C21          C32   1.412       .  A
C22          C23   1.375       .  A
C22          H34   1.082       .  S
C23          H35   1.082       .  S
C24          C25   1.375       .  A
C24          H36   1.082       .  S
C25          H37   1.082       .  S
C26          C27   1.372       .  A
C26          H38   1.082       .  S
C27          H39   1.082       .  S
C28          C29   1.374       .  A
C28          H40   1.082       .  S
C29          H41   1.082       .  S
C30        C1462   1.481       .  S
C31        C1429   1.488       .  S
C32        C1414   1.483       .  S
C33        C1525   1.484       .  S
C44          C45   1.403       .  A
C44          C49   1.402       .  A
C44        C1453   1.476       .  S
C45          C46   1.405       .  A
C45          H50   1.084       .  S
C46          C47   1.406       .  A
C46        C1390   1.485       .  S
C47          C48   1.402       .  A
C47          H51   1.084       .  S
C48          C49   1.400       .  A
C48        C1357   1.475       .  S
C49          H52   1.084       .  S
C53          C54   1.405       .  A
C53          C58   1.403       .  A
C53        C1438   1.483       .  S
C54          C55   1.406       .  A
C54          H59   1.084       .  S
C55          C56   1.405       .  A
C55        C1333   1.484       .  S
C56          C57   1.402       .  A
C56          H60   1.084       .  S
C57          C58   1.401       .  A
C57        C1309   1.479       .  S
C58          H61   1.084       .  S
C62          C63   1.401       .  A
C62          C67   1.404       .  A
C62        C1405   1.481       .  S
C63          C64   1.401       .  A
C63          H68   1.084       .  S
C64          C65   1.405       .  A
C64        C1294   1.484       .  S
C65          C66   1.408       .  A
C65          H69   1.083       .  S
C66          C67   1.408       .  A
C66        C1261   1.491       .  S
C67          H70   1.084       .  S
C71          C72   1.409       .  A
C71          C76   1.408       .  A
C71        C1246   1.497       .  S
C72          C73   1.407       .  A
C72          H77   1.082       .  S
C73          C74   1.405       .  A
C73        C1213   1.493       .  S
C74          C75   1.405       .  A
C74          H78   1.083       .  S
C75          C76   1.407       .  A
C75        C1189   1.495       .  S
C76          H79   1.082       .  S
N80          C85   1.352       .  A
N80          C84   1.352       .  A
N80         H112   1.038       .  S
N81          C88   1.354       .  A
N81          C89   1.352       .  A
N82          C87   1.357       .  A
N82          C86   1.355       .  A
N82         H113   1.034       .  S
N83          C90   1.351       .  A
N83          C91   1.351       .  A
C84          C92   1.387       .  A
C84         C100   1.412       .  A
C85         C101   1.411       .  A
C85          C93   1.386       .  A
C86          C94   1.389       .  A
C86         C103   1.421       .  A
C87         C102   1.420       .  A
C87          C95   1.386       .  A
C88         C100   1.415       .  A
C88          C96   1.385       .  A
C89         C103   1.418       .  A
C89          C97   1.388       .  A
C90          C98   1.385       .  A
C90         C101   1.411       .  A
C91          C99   1.387       .  A
C91         C102   1.415       .  A
C92          C93   1.374       .  A
C92         H104   1.082       .  S
C93         H105   1.082       .  S
C94          C95   1.373       .  A
C94         H106   1.080       .  S
C95         H107   1.082       .  S
C96          C97   1.370       .  A
C96         H108   1.082       .  S
C97         H109   1.081       .  S
C98          C99   1.373       .  A
C98         H110   1.082       .  S
C99         H111   1.082       .  S
C100       C1141   1.492       .  S
C101       C1165   1.485       .  S
C102       C1237   1.498       .  S
C103       C1117   1.490       .  S
C114        C115   1.403       .  A
C114        C119   1.405       .  A
C114       C1174   1.483       .  S
C115        C116   1.401       .  A
C115        H120   1.084       .  S
C116        C117   1.404       .  A
C116       C1102   1.479       .  S
C117        C118   1.407       .  A
C117        H121   1.084       .  S
C118        C119   1.407       .  A
C118       C1069   1.491       .  S
C119        H122   1.083       .  S
C123        C124   1.407       .  A
C123        C128   1.404       .  A
C123       C1150   1.490       .  S
C124        C125   1.404       .  A
C124        H129   1.083       .  S
C125        C126   1.404       .  A
C125       C1021   1.486       .  S
C126        C127   1.404       .  A
C126        H130   1.084       .  S
C127        C128   1.404       .  A
C127       C1054   1.486       .  S
C128        H131   1.081       .  S
C132        C133   1.408       .  A
C132        C137   1.411       .  A
C132       C1126   1.502       .  S
C133        C134   1.405       .  A
C133        H138   1.079       .  S
C134        C135   1.403       .  A
C134        C997   1.489       .  S
C135        C136   1.403       .  A
C135        H139   1.083       .  S
C136        C137   1.405       .  A
C136        C973   1.488       .  S
C137        H140   1.081       .  S
C141        C142   1.405       .  A
C141        C146   1.402   1_455  A
C141        C958   1.483       .  S
C142        C143   1.409       .  A
C142        H147   1.083       .  S
C143        C144   1.410       .  A
C143        C910   1.494       .  S
C144        C145   1.404   1_455  A
C144        H148   1.083       .  S
C145        C146   1.401       .  A
C145        C934   1.482       .  S
C146        H149   1.084       .  S
N150        C155   1.354       .  A
N150        C154   1.352       .  A
N150        H182   1.040       .  S
N151        C158   1.352       .  A
N151        C159   1.353       .  A
N152        C157   1.353       .  A
N152        C156   1.353       .  A
N152        H183   1.039       .  S
N153        C160   1.351       .  A
N153        C161   1.350       .  A
C154        C162   1.386       .  A
C154        C170   1.413       .  A
C155        C171   1.416       .  A
C155        C163   1.387       .  A
C156        C164   1.387       .  A
C156        C173   1.415   1_565  A
C157        C172   1.415       .  A
C157        C165   1.387       .  A
C158        C170   1.414   1_655  A
C158        C166   1.386       .  A
C159        C173   1.414       .  A
C159        C167   1.386       .  A
C160        C168   1.387       .  A
C160        C171   1.414   1_565  A
C161        C169   1.386       .  A
C161        C172   1.411   1_455  A
C162        C163   1.376       .  A
C162        H174   1.082       .  S
C163        H175   1.082       .  S
C164        C165   1.377       .  A
C164        H176   1.082       .  S
C165        H177   1.082       .  S
C166        C167   1.375       .  A
C166        H178   1.082       .  S
C167        H179   1.082       .  S
C168        C169   1.374       .  A
C168        H180   1.082       .  S
C169        H181   1.082       .  S
C170        C862   1.488       .  S
C171        C877   1.495       .  S
C172        C949   1.485       .  S
C173        C838   1.491       .  S
C184        C185   1.409       .  A
C184        C189   1.408   1_565  A
C184        C886   1.493   1_565  S
C185        C186   1.404       .  A
C185        H190   1.083       .  S
C186        C187   1.402       .  A
C186        C805   1.478       .  S
C187        C188   1.400   1_565  A
C187        H191   1.084       .  S
C188        C189   1.402       .  A
C188        C781   1.474       .  S
C189        H192   1.083       .  S
C193        C194   1.407       .  A
C193        C198   1.405   1_455  A
C193        C853   1.487       .  S
C194        C195   1.407       .  A
C194        H199   1.083       .  S
C195        C196   1.405   1_455  A
C195        C757   1.490       .  S
C196        C197   1.402       .  A
C196        H200   1.083       .  S
C197        C198   1.403       .  A
C197        C742   1.480       .  S
C198        H201   1.084       .  S
C202        C203   1.403       .  A
C202        C207   1.403   1_545  A
C202        C829   1.485       .  S
C203        C204   1.405       .  A
C203        H208   1.083       .  S
C204        C205   1.405       .  A
C204        C709   1.486       .  S
C205        C206   1.408   1_545  A
C205        H209   1.083       .  S
C206        C207   1.407       .  A
C206        C685   1.494       .  S
C207        H210   1.082       .  S
C211        C212   1.404       .  A
C211        C216   1.404   1_655  A
C211        C670   1.488       .  S
C212        C213   1.404       .  A
C212        H217   1.084       .  S
C213        C214   1.406       .  A
C213        C622   1.485       .  S
C214        C215   1.406   1_655  A
C214        H218   1.082       .  S
C215        C216   1.404       .  A
C215        C637   1.489       .  S
C216        H219   1.083       .  S
N220        C225   1.353       .  A
N220        C224   1.353       .  A
N220        H252   1.040       .  S
N221        C228   1.351       .  A
N221        C229   1.350       .  A
N222        C227   1.352       .  A
N222        C226   1.351       .  A
N222        H253   1.039       .  S
N223        C230   1.350       .  A
N223        C231   1.350       .  A
C224        C232   1.386       .  A
C224        C240   1.413       .  A
C225        C241   1.416       .  A
C225        C233   1.388       .  A
C226        C234   1.388       .  A
C226        C243   1.412   1_455  A
C227        C242   1.411   1_565  A
C227        C235   1.386       .  A
C228        C240   1.411   1_565  A
C228        C236   1.386       .  A
C229        C243   1.412       .  A
C229        C237   1.386       .  A
C230        C238   1.387       .  A
C230        C241   1.412   1_455  A
C231        C239   1.385       .  A
C231        C242   1.409       .  A
C232        C233   1.375       .  A
C232        H244   1.082       .  S
C233        H245   1.082       .  S
C234        C235   1.376       .  A
C234        H246   1.082       .  S
C235        H247   1.082       .  S
C236        C237   1.374       .  A
C236        H248   1.082       .  S
C237        H249   1.082       .  S
C238        C239   1.373       .  A
C238        H250   1.082       .  S
C239        H251   1.082       .  S
C240        C589   1.486       .  S
C241        C661   1.491       .  S
C242        C550   1.482       .  S
C243        C565   1.480       .  S
C254        C255   1.404   1_545  A
C254        C259   1.404       .  A
C254        C598   1.484       .  S
C255        C256   1.405   1_565  A
C255        H260   1.084       .  S
C256        C257   1.405       .  A
C256        C502   1.486   1_545  S
C257        C258   1.406       .  A
C257        H261   1.084       .  S
C258        C259   1.405       .  A
C258        C526   1.488       .  S
C259        H262   1.083       .  S
C263        C264   1.401       .  A
C263        C268   1.402   1_655  A
C263        C574   1.480       .  S
C264        C265   1.404       .  A
C264        H269   1.084       .  S
C265        C266   1.408       .  A
C265        C478   1.490       .  S
C266        C267   1.406   1_655  A
C266        H270   1.083       .  S
C267        C268   1.404       .  A
C267        C445   1.483       .  S
C268        H271   1.084       .  S
C272        C273   1.406       .  A
C272        C277   1.402       .  A
C272        C541   1.480       .  S
C273        C274   1.405       .  A
C273        H278   1.084       .  S
C274        C275   1.402       .  A
C274        C397   1.481       .  S
C275        C276   1.401       .  A
C275        H279   1.083       .  S
C276        C277   1.403       .  A
C276        C421   1.483   1_545  S
C277        H280   1.084   1_545  S
O281       Cu289   2.023   1_554  S
O281        C291   1.280       .  A
O282       Cu289   2.014       .  S
O282        C292   1.279       .  A
O283       Cu289   2.009       .  S
O283        C293   1.278       .  A
O284       Cu289   2.010   1_554  S
O284        C294   1.278       .  A
O285       Cu290   2.016   1_554  S
O285        C294   1.280       .  A
O286       Cu290   2.017       .  S
O286        C293   1.279       .  A
O287       Cu290   2.008       .  S
O287        C292   1.278       .  A
O288       Cu290   2.007   1_554  S
O288        C291   1.277       .  A
Cu289      Cu290   2.367       .  S
C291       C1270   1.489       .  S
C292        C766   1.488       .  S
C293       C1078   1.483       .  S
C294        C646   1.490       .  S
O295       Cu303   2.004   1_556  S
O295        C305   1.278       .  A
O296       Cu303   2.006       .  S
O296        C306   1.276       .  A
O297       Cu303   2.013   1_556  S
O297        C307   1.279       .  A
O298       Cu303   2.002       .  S
O298        C308   1.278       .  A
O299       Cu304   2.008       .  S
O299        C308   1.278       .  A
O300       Cu304   2.001   1_556  S
O300        C307   1.277       .  A
O301       Cu304   2.016       .  S
O301        C306   1.279       .  A
O302       Cu304   2.019   1_556  S
O302        C305   1.279       .  A
Cu303      Cu304   2.369       .  S
C305       C1030   1.486       .  S
C306        C517   1.473       .  S
C307        C718   1.486       .  S
C308       C1477   1.484       .  S
O309       Cu317   2.001       .  S
O309        C319   1.277       .  A
O310       Cu317   2.001   1_556  S
O310        C320   1.277       .  A
O311       Cu317   2.012       .  S
O311        C321   1.278       .  A
O312       Cu317   2.011   1_556  S
O312        C322   1.278       .  A
O313       Cu318   2.009   1_556  S
O313        C322   1.277       .  A
O314       Cu318   2.008       .  S
O314        C321   1.277       .  A
O315       Cu318   2.024   1_556  S
O315        C320   1.281       .  A
O316       Cu318   2.025       .  S
O316        C319   1.280       .  A
Cu317      Cu318   2.370       .  S
C319       C1366   1.489       .  S
C320        C925   1.485       .  S
C321        C469   1.472       .  S
C322        C982   1.471       .  S
O323       Cu331   2.018       .  S
O323        C333   1.279       .  A
O324       Cu331   2.015   1_556  S
O324        C334   1.279       .  A
O325       Cu331   2.016   1_556  S
O325        C335   1.278       .  A
O326       Cu331   2.008       .  S
O326        C336   1.277       .  A
O327       Cu332   2.001       .  S
O327        C336   1.276       .  A
O328       Cu332   2.002   1_556  S
O328        C335   1.276       .  A
O329       Cu332   2.009   1_556  S
O329        C334   1.278       .  A
O330       Cu332   2.008       .  S
O330        C333   1.278       .  A
Cu331      Cu332   2.371       .  S
C333       C1318   1.488       .  S
C334        C814   1.487       .  S
C335       C1198   1.473       .  S
C336        C430   1.467       .  S
O337       Cu345   2.014       .  S
O337        C347   1.279       .  A
O338       Cu345   2.017       .  S
O338        C348   1.279       .  A
O339       Cu345   2.012       .  S
O339        C349   1.278       .  A
O340       Cu345   2.009       .  S
O340        C350   1.278       .  A
O341       Cu346   2.013       .  S
O341        C350   1.278       .  A
O342       Cu346   2.014       .  S
O342        C349   1.279       .  A
O343       Cu346   2.005       .  S
O343        C348   1.277       .  A
O344       Cu346   2.009       .  S
O344        C347   1.278       .  A
Cu345      Cu346   2.369       .  S
C347       C1093   1.486       .  S
C348        C454   1.484       .  S
C349        C901   1.489       .  S
C350       C1285   1.479       .  S
O351       Cu359   2.008       .  S
O351        C361   1.278       .  A
O352       Cu359   2.000       .  S
O352        C362   1.277       .  A
O353       Cu359   2.005       .  S
O353        C363   1.277       .  A
O354       Cu359   2.005       .  S
O354        C364   1.278       .  A
O355       Cu360   1.998       .  S
O355        C364   1.276       .  A
O356       Cu360   2.002       .  S
O356        C363   1.276       .  A
O357       Cu360   2.022       .  S
O357        C362   1.280       .  A
O358       Cu360   2.016       .  S
O358        C361   1.280       .  A
Cu359      Cu360   2.371       .  S
C361        C790   1.489       .  S
C362       C1510   1.483       .  S
C363       C1045   1.469       .  S
C364        C406   1.481       .  S
O365       Cu373   2.010       .  S
O365        C375   1.277       .  A
O366       Cu373   2.005       .  S
O366        C376   1.278       .  A
O367       Cu373   2.009       .  S
O367        C377   1.279       .  A
O368       Cu373   2.016       .  S
O368        C378   1.279       .  A
O369       Cu374   2.001       .  S
O369        C378   1.278       .  A
O370       Cu374   2.003       .  S
O370        C377   1.277       .  A
O371       Cu374   2.010       .  S
O371        C376   1.278       .  A
O372       Cu374   2.008       .  S
O372        C375   1.277       .  A
Cu373      Cu374   2.371       .  S
C375       C1006   1.470       .  S
C376        C613   1.479       .  S
C377       C1381   1.485       .  S
C378        C733   1.485       .  S
O379       Cu387   2.011       .  S
O379        C389   1.278       .  A
O380       Cu387   1.996       .  S
O380        C390   1.276       .  A
O381       Cu387   2.018       .  S
O381        C391   1.279       .  A
O382       Cu387   2.017       .  S
O382        C392   1.279       .  A
O383       Cu388   2.003       .  S
O383        C392   1.276       .  A
O384       Cu388   2.003       .  S
O384        C391   1.277       .  A
O385       Cu388   2.030       .  S
O385        C390   1.281       .  A
O386       Cu388   2.022       .  S
O386        C389   1.280       .  A
Cu387      Cu388   2.370       .  S
C389       C1222   1.492       .  S
C390        C493   1.488       .  S
C391       C1342   1.480       .  S
C392        C694   1.474       .  S
C393        C394   1.399       .  A
C393        C398   1.396       .  A
C393        H403   1.084       .  S
C394        C395   1.407       .  A
C394        C399   1.474       .  S
C395        C396   1.400       .  A
C395        O400   1.372       .  S
C396        C397   1.405       .  A
C396        H401   1.083       .  S
C397        C398   1.412       .  A
C398        O402   1.372       .  S
C399        C404   1.405       .  A
C399        C408   1.400       .  A
O400        H416   0.992       .  S
O402        H413   0.992       .  S
C404        C405   1.398       .  A
C404        O409   1.372       .  S
C405        C406   1.406       .  A
C405        H410   1.083       .  S
C406        C407   1.414       .  A
C407        C408   1.399       .  A
C407        O411   1.372       .  S
C408        H412   1.084       .  S
O409        H414   0.992       .  S
O411        H415   0.992       .  S
C417        C418   1.404       .  A
C417        C422   1.400       .  A
C417        H427   1.083       .  S
C418        C419   1.410       .  A
C418        C423   1.484       .  S
C419        C420   1.396       .  A
C419        O424   1.372       .  S
C420        C421   1.404       .  A
C420        H425   1.083       .  S
C421        C422   1.411       .  A
C422        O426   1.373   1_565  S
C423        C428   1.411       .  A
C423        C432   1.406       .  A
O424        H440   0.992       .  S
O426        H437   0.992       .  S
C428        C429   1.400       .  A
C428        O433   1.372       .  S
C429        C430   1.401       .  A
C429        H434   1.084       .  S
C430        C431   1.405       .  A
C431        C432   1.398       .  A
C431        O435   1.372       .  S
C432        H436   1.083       .  S
O433        H438   0.992       .  S
O435        H439   0.992       .  S
C441        C442   1.402       .  A
C441        C446   1.400       .  A
C441        H451   1.084       .  S
C442        C443   1.407       .  A
C442        C447   1.479       .  S
C443        C444   1.401       .  A
C443        O448   1.372       .  S
C444        C445   1.405       .  A
C444        H449   1.084       .  S
C445        C446   1.410       .  A
C446        O450   1.371       .  S
C447        C452   1.406       .  A
C447        C456   1.401       .  A
O448        H464   0.992       .  S
O450        H461   0.992   1_455  S
C452        C453   1.401       .  A
C452        O457   1.372       .  S
C453        C454   1.406       .  A
C453        H458   1.083       .  S
C454        C455   1.414       .  A
C455        C456   1.401       .  A
C455        O459   1.372       .  S
C456        H460   1.084       .  S
O457        H462   0.992       .  S
O459        H463   0.992       .  S
C465        C466   1.407       .  A
C465        C470   1.401       .  A
C465        H475   1.083       .  S
C466        C467   1.411       .  A
C466        C471   1.488       .  S
C467        C468   1.399       .  A
C467        O472   1.371       .  S
C468        C469   1.401       .  A
C468        H473   1.084       .  S
C469        C470   1.407       .  A
C470        O474   1.372       .  S
C471        C476   1.409       .  A
C471        C480   1.405       .  A
O472        H488   0.992       .  S
O474        H485   0.992       .  S
C476        C477   1.399       .  A
C476        O481   1.372       .  S
C477        C478   1.408       .  A
C477        H482   1.083       .  S
C478        C479   1.412       .  A
C479        C480   1.399       .  A
C479        O483   1.371   1_655  S
C480        H484   1.083       .  S
O481        H486   0.992       .  S
O483        H487   0.992       .  S
C489        C490   1.400       .  A
C489        C494   1.399       .  A
C489        H499   1.084       .  S
C490        C491   1.407       .  A
C490        C495   1.480       .  S
C491        C492   1.403       .  A
C491        O496   1.371       .  S
C492        C493   1.407       .  A
C492        H497   1.083       .  S
C493        C494   1.416       .  A
C494        O498   1.372       .  S
C495        C500   1.407       .  A
C495        C504   1.402       .  A
O496        H512   0.992       .  S
O498        H509   0.992       .  S
C500        C501   1.400       .  A
C500        O505   1.372       .  S
C501        C502   1.405       .  A
C501        H506   1.084       .  S
C502        C503   1.412       .  A
C503        C504   1.401       .  A
C503        O507   1.372   1_565  S
C504        H508   1.084       .  S
O505        H510   0.991       .  S
O507        H511   0.992       .  S
C513        C514   1.407       .  A
C513        C518   1.400       .  A
C513        H523   1.083       .  S
C514        C515   1.414       .  A
C514        C519   1.493       .  S
C515        C516   1.402       .  A
C515        O520   1.372       .  S
C516        C517   1.402       .  A
C516        H521   1.084       .  S
C517        C518   1.405       .  A
C518        O522   1.372       .  S
C519        C524   1.412       .  A
C519        C528   1.406       .  A
O520        H536   0.991       .  S
O522        H533   0.992       .  S
C524        C525   1.400       .  A
C524        O529   1.372       .  S
C525        C526   1.405       .  A
C525        H530   1.084       .  S
C526        C527   1.410       .  A
C527        C528   1.402       .  A
C527        O531   1.373       .  S
C528        H532   1.083       .  S
O529        H534   0.992       .  S
O531        H535   0.992       .  S
C537        C538   1.404       .  A
C537        C542   1.399       .  A
C537        H547   1.083       .  S
C538        C539   1.408   1_545  A
C538        C543   1.481       .  S
C539        C540   1.399       .  A
C539        O544   1.372       .  S
C540        C541   1.405   1_565  A
C540        H545   1.084       .  S
C541        C542   1.408       .  A
C542        O546   1.371       .  S
C543        C548   1.409       .  A
C543        C552   1.405   1_545  A
O544        H560   0.992       .  S
O546        H557   0.992       .  S
C548        C549   1.399       .  A
C548        O553   1.372       .  S
C549        C550   1.401       .  A
C549        H554   1.084       .  S
C550        C551   1.406   1_545  A
C551        C552   1.400       .  A
C551        O555   1.371       .  S
C552        H556   1.083       .  S
O553        H558   0.992       .  S
O555        H559   0.992       .  S
C561        C562   1.403   1_455  A
C561        C566   1.399       .  A
C561        H571   1.084       .  S
C562        C563   1.406       .  A
C562        C567   1.473       .  S
C563        C564   1.399       .  A
C563        O568   1.372       .  S
C564        C565   1.401       .  A
C564        H569   1.084       .  S
C565        C566   1.406   1_655  A
C566        O570   1.372       .  S
C567        C572   1.405       .  A
C567        C576   1.401   1_655  A
O568        H584   0.992       .  S
O570        H581   0.991       .  S
C572        C573   1.398       .  A
C572        O577   1.372       .  S
C573        C574   1.405       .  A
C573        H578   1.084       .  S
C574        C575   1.410   1_655  A
C575        C576   1.399       .  A
C575        O579   1.371       .  S
C576        H580   1.084       .  S
O577        H582   0.992       .  S
O579        H583   0.992       .  S
C585        C586   1.404   1_565  A
C585        C590   1.400       .  A
C585        H595   1.083       .  S
C586        C587   1.409       .  A
C586        C591   1.483       .  S
C587        C588   1.400       .  A
C587        O592   1.372       .  S
C588        C589   1.402       .  A
C588        H593   1.084       .  S
C589        C590   1.407   1_545  A
C590        O594   1.371       .  S
C591        C596   1.408   1_545  A
C591        C600   1.404       .  A
O592        H608   0.992       .  S
O594        H605   0.992       .  S
C596        C597   1.400       .  A
C596        O601   1.372       .  S
C597        C598   1.405   1_565  A
C597        H602   1.084       .  S
C598        C599   1.410       .  A
C599        C600   1.400       .  A
C599        O603   1.372       .  S
C600        H604   1.084       .  S
O601        H606   0.992       .  S
O603        H607   0.992       .  S
C609        C610   1.402       .  A
C609        C614   1.401       .  A
C609        H619   1.084       .  S
C610        C611   1.406       .  A
C610        C615   1.479       .  S
C611        C612   1.399       .  A
C611        O616   1.372       .  S
C612        C613   1.405       .  A
C612        H617   1.084       .  S
C613        C614   1.411       .  A
C614        O618   1.372       .  S
C615        C620   1.406       .  A
C615        C624   1.402       .  A
O616        H632   0.992       .  S
O618        H629   0.992       .  S
C620        C621   1.399       .  A
C620        O625   1.372       .  S
C621        C622   1.406       .  A
C621        H626   1.084       .  S
C622        C623   1.411       .  A
C623        C624   1.402       .  A
C623        O627   1.372       .  S
C624        H628   1.084       .  S
O625        H630   0.992       .  S
O627        H631   0.992       .  S
C633        C634   1.402       .  A
C633        C638   1.401       .  A
C633        H643   1.084       .  S
C634        C635   1.405       .  A
C634        C639   1.478       .  S
C635        C636   1.399       .  A
C635        O640   1.372       .  S
C636        C637   1.408       .  A
C636        H641   1.083       .  S
C637        C638   1.412       .  A
C638        O642   1.371       .  S
C639        C644   1.404       .  A
C639        C648   1.400       .  A
O640        H656   0.991       .  S
O642        H653   0.992       .  S
C644        C645   1.400       .  A
C644        O649   1.372       .  S
C645        C646   1.408       .  A
C645        H650   1.083       .  S
C646        C647   1.416       .  A
C647        C648   1.402       .  A
C647        O651   1.371       .  S
C648        H652   1.084       .  S
O649        H654   0.991       .  S
O651        H655   0.992       .  S
C657        C658   1.405   1_455  A
C657        C662   1.397       .  A
C657        H667   1.083       .  S
C658        C659   1.411       .  A
C658        C663   1.486       .  S
C659        C660   1.399       .  A
C659        O664   1.372       .  S
C660        C661   1.404       .  A
C660        H665   1.084       .  S
C661        C662   1.410   1_655  A
C662        O666   1.372       .  S
C663        C668   1.411       .  A
C663        C672   1.403       .  A
O664        H680   0.992       .  S
O666        H677   0.992       .  S
C668        C669   1.400       .  A
C668        O673   1.372       .  S
C669        C670   1.406       .  A
C669        H674   1.083       .  S
C670        C671   1.412       .  A
C671        C672   1.397       .  A
C671        O675   1.372       .  S
C672        H676   1.083       .  S
O673        H678   0.992       .  S
O675        H679   0.992       .  S
C681        C682   1.404       .  A
C681        C686   1.400       .  A
C681        H691   1.083       .  S
C682        C683   1.410       .  A
C682        C687   1.489       .  S
C683        C684   1.402       .  A
C683        O688   1.373       .  S
C684        C685   1.407       .  A
C684        H689   1.083   1_565  S
C685        C686   1.414       .  A
C686        O690   1.371       .  S
C687        C692   1.412       .  A
C687        C696   1.406       .  A
O688        H704   0.992       .  S
O690        H701   0.992       .  S
C692        C693   1.400       .  A
C692        O697   1.371       .  S
C693        C694   1.402       .  A
C693        H698   1.084       .  S
C694        C695   1.407       .  A
C695        C696   1.400       .  A
C695        O699   1.372       .  S
C696        H700   1.083       .  S
O697        H702   0.992       .  S
O699        H703   0.992       .  S
C705        C706   1.401       .  A
C705        C710   1.401       .  A
C705        H715   1.084       .  S
C706        C707   1.405       .  A
C706        C711   1.476       .  S
C707        C708   1.400       .  A
C707        O712   1.372       .  S
C708        C709   1.407       .  A
C708        H713   1.084       .  S
C709        C710   1.411       .  A
C710        O714   1.372       .  S
C711        C716   1.404       .  A
C711        C720   1.400       .  A
O712        H728   0.991       .  S
O714        H725   0.992       .  S
C716        C717   1.399       .  A
C716        O721   1.372       .  S
C717        C718   1.408       .  A
C717        H722   1.083       .  S
C718        C719   1.414       .  A
C719        C720   1.400       .  A
C719        O723   1.371       .  S
C720        H724   1.084       .  S
O721        H726   0.991       .  S
O723        H727   0.992       .  S
C729        C730   1.402       .  A
C729        C734   1.402       .  A
C729        H739   1.084       .  S
C730        C731   1.405       .  A
C730        C735   1.479       .  S
C731        C732   1.397       .  A
C731        O736   1.372       .  S
C732        C733   1.407       .  A
C732        H737   1.083       .  S
C733        C734   1.414       .  A
C734        O738   1.371       .  S
C735        C740   1.407       .  A
C735        C744   1.402       .  A
O736        H752   0.992       .  S
O738        H749   0.992       .  S
C740        C741   1.402       .  A
C740        O745   1.372       .  S
C741        C742   1.405       .  A
C741        H746   1.084       .  S
C742        C743   1.408       .  A
C743        C744   1.399       .  A
C743        O747   1.372       .  S
C744        H748   1.084       .  S
O745        H750   0.992       .  S
O747        H751   0.992       .  S
C753        C754   1.403       .  A
C753        C758   1.401       .  A
C753        H763   1.084       .  S
C754        C755   1.406       .  A
C754        C759   1.481       .  S
C755        C756   1.400       .  A
C755        O760   1.372       .  S
C756        C757   1.407       .  A
C756        H761   1.083       .  S
C757        C758   1.413       .  A
C758        O762   1.372       .  S
C759        C764   1.407       .  A
C759        C768   1.402       .  A
O760        H776   0.992       .  S
O762        H773   0.992   1_455  S
C764        C765   1.400       .  A
C764        O769   1.372       .  S
C765        C766   1.408       .  A
C765        H770   1.083       .  S
C766        C767   1.414       .  A
C767        C768   1.401       .  A
C767        O771   1.371       .  S
C768        H772   1.084       .  S
O769        H774   0.992       .  S
O771        H775   0.992       .  S
C777        C778   1.406       .  A
C777        C782   1.399       .  A
C777        H787   1.083       .  S
C778        C779   1.411       .  A
C778        C783   1.487       .  S
C779        C780   1.402       .  A
C779        O784   1.372       .  S
C780        C781   1.402       .  A
C780        H785   1.084   1_545  S
C781        C782   1.405       .  A
C782        O786   1.371       .  S
C783        C788   1.409       .  A
C783        C792   1.403       .  A
O784        H800   0.991       .  S
O786        H797   0.992       .  S
C788        C789   1.401       .  A
C788        O793   1.372       .  S
C789        C790   1.406       .  A
C789        H794   1.083       .  S
C790        C791   1.415       .  A
C791        C792   1.401       .  A
C791        O795   1.371       .  S
C792        H796   1.084       .  S
O793        H798   0.992       .  S
O795        H799   0.992       .  S
C801        C802   1.407       .  A
C801        C806   1.402       .  A
C801        H811   1.083       .  S
C802        C803   1.410       .  A
C802        C807   1.488       .  S
C803        C804   1.400       .  A
C803        O808   1.371       .  S
C804        C805   1.402       .  A
C804        H809   1.084   1_565  S
C805        C806   1.406       .  A
C806        O810   1.372       .  S
C807        C812   1.409       .  A
C807        C816   1.404       .  A
O808        H824   0.992       .  S
O810        H821   0.992       .  S
C812        C813   1.402       .  A
C812        O817   1.372       .  S
C813        C814   1.406       .  A
C813        H818   1.083       .  S
C814        C815   1.413       .  A
C815        C816   1.401       .  A
C815        O819   1.371       .  S
C816        H820   1.083       .  S
O817        H822   0.992       .  S
O819        H823   0.992       .  S
C825        C826   1.403   1_565  A
C825        C830   1.402       .  A
C825        H835   1.084       .  S
C826        C827   1.408       .  A
C826        C831   1.483       .  S
C827        C828   1.401       .  A
C827        O832   1.371       .  S
C828        C829   1.405       .  A
C828        H833   1.083       .  S
C829        C830   1.411   1_545  A
C830        O834   1.372       .  S
C831        C836   1.408   1_545  A
C831        C840   1.404       .  A
O832        H848   0.992       .  S
O834        H845   0.992       .  S
C836        C837   1.402       .  A
C836        O841   1.372       .  S
C837        C838   1.404   1_565  A
C837        H842   1.084       .  S
C838        C839   1.408       .  A
C839        C840   1.401       .  A
C839        O843   1.371       .  S
C840        H844   1.084       .  S
O841        H846   0.992       .  S
O843        H847   0.992       .  S
C849        C850   1.404   1_655  A
C849        C854   1.398       .  A
C849        H859   1.084       .  S
C850        C851   1.410       .  A
C850        C855   1.487       .  S
C851        C852   1.403       .  A
C851        O856   1.372       .  S
C852        C853   1.406       .  A
C852        H857   1.083       .  S
C853        C854   1.411   1_455  A
C854        O858   1.372       .  S
C855        C860   1.411       .  A
C855        C864   1.406   1_455  A
O856        H872   0.992       .  S
O858        H869   0.992       .  S
C860        C861   1.399       .  A
C860        O865   1.372       .  S
C861        C862   1.402       .  A
C861        H866   1.084       .  S
C862        C863   1.407   1_455  A
C863        C864   1.402       .  A
C863        O867   1.371       .  S
C864        H868   1.083       .  S
O865        H870   0.992       .  S
O867        H871   0.991       .  S
C873        C874   1.406   1_565  A
C873        C878   1.399       .  A
C873        H883   1.083       .  S
C874        C875   1.412       .  A
C874        C879   1.492       .  S
C875        C876   1.404       .  A
C875        O880   1.373       .  S
C876        C877   1.405       .  A
C876        H881   1.084       .  S
C877        C878   1.409   1_545  A
C878        O882   1.372       .  S
C879        C884   1.411       .  A
C879        C888   1.406       .  A
O880        H896   0.992       .  S
O882        H893   0.991       .  S
C884        C885   1.401       .  A
C884        O889   1.371       .  S
C885        C886   1.407       .  A
C885        H890   1.083       .  S
C886        C887   1.412       .  A
C887        C888   1.400       .  A
C887        O891   1.371   1_545  S
C888        H892   1.084       .  S
O889        H894   0.992   1_545  S
O891        H895   0.992       .  S
C897        C898   1.403       .  A
C897        C902   1.403       .  A
C897        H907   1.084       .  S
C898        C899   1.408       .  A
C898        C903   1.486       .  S
C899        C900   1.402       .  A
C899        O904   1.373       .  S
C900        C901   1.407       .  A
C900        H905   1.083       .  S
C901        C902   1.414       .  A
C902        O906   1.371       .  S
C903        C908   1.408       .  A
C903        C912   1.403       .  A
O904        H920   0.992       .  S
O906        H917   0.992       .  S
C908        C909   1.400       .  A
C908        O913   1.371       .  S
C909        C910   1.407       .  A
C909        H914   1.083       .  S
C910        C911   1.415       .  A
C911        C912   1.402       .  A
C911        O915   1.371       .  S
C912        H916   1.084       .  S
O913        H918   0.991       .  S
O915        H919   0.992       .  S
C921        C922   1.404       .  A
C921        C926   1.401       .  A
C921        H931   1.083       .  S
C922        C923   1.411       .  A
C922        C927   1.489       .  S
C923        C924   1.401       .  A
C923        O928   1.372       .  S
C924        C925   1.404       .  A
C924        H929   1.083       .  S
C925        C926   1.413       .  A
C926        O930   1.372       .  S
C927        C932   1.412       .  A
C927        C936   1.405       .  A
O928        H944   0.992       .  S
O930        H941   0.992       .  S
C932        C933   1.404       .  A
C932        O937   1.372       .  S
C933        C934   1.403       .  A
C933        H938   1.084   1_655  S
C934        C935   1.407       .  A
C935        C936   1.399       .  A
C935        O939   1.372       .  S
C936        H940   1.083       .  S
O937        H942   0.992       .  S
O939        H943   0.992       .  S
C945        C946   1.405   1_655  A
C945        C950   1.402       .  A
C945        H955   1.084       .  S
C946        C947   1.407       .  A
C946        C951   1.480       .  S
C947        C948   1.399       .  A
C947        O952   1.372       .  S
C948        C949   1.402   1_455  A
C948        H953   1.084       .  S
C949        C950   1.407       .  A
C950        O954   1.371       .  S
C951        C956   1.409       .  A
C951        C960   1.402   1_455  A
O952        H968   0.992       .  S
O954        H965   0.991       .  S
C956        C957   1.401       .  A
C956        O961   1.372       .  S
C957        C958   1.404       .  A
C957        H962   1.084       .  S
C958        C959   1.411   1_455  A
C959        C960   1.400       .  A
C959        O963   1.372       .  S
C960        H964   1.084       .  S
O961        H966   0.992       .  S
O963        H967   0.992       .  S
C969        C970   1.405       .  A
C969        C974   1.398       .  A
C969        H979   1.083       .  S
C970        C971   1.412       .  A
C970        C975   1.491       .  S
C971        C972   1.401       .  A
C971        O976   1.372       .  S
C972        C973   1.405       .  A
C972        H977   1.083       .  S
C973        C974   1.411       .  A
C974        O978   1.372       .  S
C975        C980   1.413       .  A
C975        C984   1.407       .  A
O976        H992   0.992       .  S
O978        H989   0.992       .  S
C980        C981   1.402       .  A
C980        O985   1.373       .  S
C981        C982   1.400       .  A
C981        H986   1.084       .  S
C982        C983   1.406       .  A
C983        C984   1.401       .  A
C983        O987   1.372       .  S
C984        H988   1.083       .  S
O985        H990   0.992       .  S
O987        H991   0.992       .  S
C993        C994   1.403       .  A
C993        C998   1.399       .  A
C993       H1003   1.083       .  S
C994        C995   1.409       .  A
C994        C999   1.485       .  S
C995        C996   1.398       .  A
C995       O1000   1.372       .  S
C996        C997   1.406       .  A
C996       H1001   1.083       .  S
C997        C998   1.413       .  A
C998       O1002   1.372       .  S
C999       C1004   1.412       .  A
C999       C1008   1.405       .  A
O1000      H1016   0.992       .  S
O1002      H1013   0.992       .  S
C1004      C1005   1.401       .  A
C1004      O1009   1.372       .  S
C1005      C1006   1.402       .  A
C1005      H1010   1.084       .  S
C1006      C1007   1.405       .  A
C1007      C1008   1.398       .  A
C1007      O1011   1.372       .  S
C1008      H1012   1.083       .  S
O1009      H1014   0.992       .  S
O1011      H1015   0.992       .  S
C1017      C1018   1.403       .  A
C1017      C1022   1.400       .  A
C1017      H1027   1.083       .  S
C1018      C1019   1.408       .  A
C1018      C1023   1.483       .  S
C1019      C1020   1.399       .  A
C1019      O1024   1.371       .  S
C1020      C1021   1.405       .  A
C1020      H1025   1.084       .  S
C1021      C1022   1.412       .  A
C1022      O1026   1.372       .  S
C1023      C1028   1.406       .  A
C1023      C1032   1.404       .  A
O1024      H1040   0.992       .  S
O1026      H1037   0.992       .  S
C1028      C1029   1.400       .  A
C1028      O1033   1.372       .  S
C1029      C1030   1.407       .  A
C1029      H1034   1.083       .  S
C1030      C1031   1.412       .  A
C1031      C1032   1.401       .  A
C1031      O1035   1.371       .  S
C1032      H1036   1.084       .  S
O1033      H1038   0.992       .  S
O1035      H1039   0.992       .  S
C1041      C1042   1.406       .  A
C1041      C1046   1.397       .  A
C1041      H1051   1.083       .  S
C1042      C1043   1.412       .  A
C1042      C1047   1.486       .  S
C1043      C1044   1.399       .  A
C1043      O1048   1.372       .  S
C1044      C1045   1.401       .  A
C1044      H1049   1.084       .  S
C1045      C1046   1.406       .  A
C1046      O1050   1.372       .  S
C1047      C1052   1.411       .  A
C1047      C1056   1.404       .  A
O1048      H1064   0.992       .  S
O1050      H1061   0.992       .  S
C1052      C1053   1.398       .  A
C1052      O1057   1.372       .  S
C1053      C1054   1.405       .  A
C1053      H1058   1.083       .  S
C1054      C1055   1.412       .  A
C1055      C1056   1.398       .  A
C1055      O1059   1.372       .  S
C1056      H1060   1.083       .  S
O1057      H1062   0.992       .  S
O1059      H1063   0.992       .  S
C1065      C1066   1.401       .  A
C1065      C1070   1.400       .  A
C1065      H1075   1.084       .  S
C1066      C1067   1.406       .  A
C1066      C1071   1.481       .  S
C1067      C1068   1.403       .  A
C1067      O1072   1.372       .  S
C1068      C1069   1.408       .  A
C1068      H1073   1.083       .  S
C1069      C1070   1.413       .  A
C1070      O1074   1.371       .  S
C1071      C1076   1.407       .  A
C1071      C1080   1.402       .  A
O1072      H1088   0.992       .  S
O1074      H1085   0.992       .  S
C1076      C1077   1.402       .  A
C1076      O1081   1.372       .  S
C1077      C1078   1.407       .  A
C1077      H1082   1.084       .  S
C1078      C1079   1.411       .  A
C1079      C1080   1.401       .  A
C1079      O1083   1.371       .  S
C1080      H1084   1.084       .  S
O1081      H1086   0.992       .  S
O1083      H1087   0.992       .  S
C1089      C1090   1.404       .  A
C1089      C1094   1.401       .  A
C1089      H1099   1.084       .  S
C1090      C1091   1.409       .  A
C1090      C1095   1.486       .  S
C1091      C1092   1.402       .  A
C1091      O1096   1.373       .  S
C1092      C1093   1.406       .  A
C1092      H1097   1.083       .  S
C1093      C1094   1.412       .  A
C1094      O1098   1.371       .  S
C1095      C1100   1.411       .  A
C1095      C1104   1.405       .  A
O1096      H1112   0.992       .  S
O1098      H1109   0.992       .  S
C1100      C1101   1.401       .  A
C1100      O1105   1.371       .  S
C1101      C1102   1.403       .  A
C1101      H1106   1.084       .  S
C1102      C1103   1.407       .  A
C1103      C1104   1.400       .  A
C1103      O1107   1.372       .  S
C1104      H1108   1.084       .  S
O1105      H1110   0.992       .  S
O1107      H1111   0.992       .  S
C1113      C1114   1.409       .  A
C1113      C1118   1.397       .  A
C1113      H1123   1.082       .  S
C1114      C1115   1.418       .  A
C1114      C1119   1.499       .  S
C1115      C1116   1.400       .  A
C1115      O1120   1.371       .  S
C1116      C1117   1.402       .  A
C1116      H1121   1.084       .  S
C1117      C1118   1.405       .  A
C1118      O1122   1.372       .  S
C1119      C1124   1.414       .  A
C1119      C1128   1.406       .  A
O1120      H1136   0.992       .  S
O1122      H1133   0.991       .  S
C1124      C1125   1.397       .  A
C1124      O1129   1.371       .  S
C1125      C1126   1.408       .  A
C1125      H1130   1.081       .  S
C1126      C1127   1.417       .  A
C1127      C1128   1.400       .  A
C1127      O1131   1.371       .  S
C1128      H1132   1.082       .  S
O1129      H1134   0.992       .  S
O1131      H1135   0.992       .  S
C1137      C1138   1.406       .  A
C1137      C1142   1.396       .  A
C1137      H1147   1.082       .  S
C1138      C1139   1.414       .  A
C1138      C1143   1.492       .  S
C1139      C1140   1.400       .  A
C1139      O1144   1.371       .  S
C1140      C1141   1.403       .  A
C1140      H1145   1.083       .  S
C1141      C1142   1.408       .  A
C1142      O1146   1.372       .  S
C1143      C1148   1.412       .  A
C1143      C1152   1.406       .  A
O1144      H1160   0.992       .  S
O1146      H1157   0.992       .  S
C1148      C1149   1.397       .  A
C1148      O1153   1.373       .  S
C1149      C1150   1.404       .  A
C1149      H1154   1.083       .  S
C1150      C1151   1.413       .  A
C1151      C1152   1.401       .  A
C1151      O1155   1.372       .  S
C1152      H1156   1.083       .  S
O1153      H1158   0.992       .  S
O1155      H1159   0.992       .  S
C1161      C1162   1.406       .  A
C1161      C1166   1.400       .  A
C1161      H1171   1.083       .  S
C1162      C1163   1.412       .  A
C1162      C1167   1.488       .  S
C1163      C1164   1.398       .  A
C1163      O1168   1.371       .  S
C1164      C1165   1.400       .  A
C1164      H1169   1.084       .  S
C1165      C1166   1.407       .  A
C1166      O1170   1.372       .  S
C1167      C1172   1.411       .  A
C1167      C1176   1.405       .  A
O1168      H1184   0.992       .  S
O1170      H1181   0.992       .  S
C1172      C1173   1.401       .  A
C1172      O1177   1.372       .  S
C1173      C1174   1.404       .  A
C1173      H1178   1.084       .  S
C1174      C1175   1.409       .  A
C1175      C1176   1.399       .  A
C1175      O1179   1.372       .  S
C1176      H1180   1.083       .  S
O1177      H1182   0.992       .  S
O1179      H1183   0.992       .  S
C1185      C1186   1.403       .  A
C1185      C1190   1.400       .  A
C1185      H1195   1.084       .  S
C1186      C1187   1.409       .  A
C1186      C1191   1.487       .  S
C1187      C1188   1.401       .  A
C1187      O1192   1.372       .  S
C1188      C1189   1.408       .  A
C1188      H1193   1.083       .  S
C1189      C1190   1.415       .  A
C1190      O1194   1.372       .  S
C1191      C1196   1.410       .  A
C1191      C1200   1.406       .  A
O1192      H1208   0.992       .  S
O1194      H1205   0.992       .  S
C1196      C1197   1.399       .  A
C1196      O1201   1.372       .  S
C1197      C1198   1.402       .  A
C1197      H1202   1.084       .  S
C1198      C1199   1.407       .  A
C1199      C1200   1.402       .  A
C1199      O1203   1.372       .  S
C1200      H1204   1.083       .  S
O1201      H1206   0.992       .  S
O1203      H1207   0.992       .  S
C1209      C1210   1.404       .  A
C1209      C1214   1.403       .  A
C1209      H1219   1.083       .  S
C1210      C1211   1.408       .  A
C1210      C1215   1.486       .  S
C1211      C1212   1.401       .  A
C1211      O1216   1.372       .  S
C1212      C1213   1.408       .  A
C1212      H1217   1.083       .  S
C1213      C1214   1.413       .  A
C1214      O1218   1.372       .  S
C1215      C1220   1.407       .  A
C1215      C1224   1.402       .  A
O1216      H1232   0.992       .  S
O1218      H1229   0.992       .  S
C1220      C1221   1.403       .  A
C1220      O1225   1.372       .  S
C1221      C1222   1.408       .  A
C1221      H1226   1.083       .  S
C1222      C1223   1.416       .  A
C1223      C1224   1.402       .  A
C1223      O1227   1.371       .  S
C1224      H1228   1.084       .  S
O1225      H1230   0.992       .  S
O1227      H1231   0.992       .  S
C1233      C1234   1.407       .  A
C1233      C1238   1.402       .  A
C1233      H1243   1.083       .  S
C1234      C1235   1.413       .  A
C1234      C1239   1.496       .  S
C1235      C1236   1.400       .  A
C1235      O1240   1.372       .  S
C1236      C1237   1.404       .  A
C1236      H1241   1.084       .  S
C1237      C1238   1.410       .  A
C1238      O1242   1.371       .  S
C1239      C1244   1.412       .  A
C1239      C1248   1.406       .  A
O1240      H1256   0.992       .  S
O1242      H1253   0.992       .  S
C1244      C1245   1.403       .  A
C1244      O1249   1.372       .  S
C1245      C1246   1.408       .  A
C1245      H1250   1.083       .  S
C1246      C1247   1.413       .  A
C1247      C1248   1.400       .  A
C1247      O1251   1.371       .  S
C1248      H1252   1.083       .  S
O1249      H1254   0.992       .  S
O1251      H1255   0.992       .  S
C1257      C1258   1.404       .  A
C1257      C1262   1.401       .  A
C1257      H1267   1.084       .  S
C1258      C1259   1.408       .  A
C1258      C1263   1.487       .  S
C1259      C1260   1.403       .  A
C1259      O1264   1.372       .  S
C1260      C1261   1.407       .  A
C1260      H1265   1.083       .  S
C1261      C1262   1.412       .  A
C1262      O1266   1.372       .  S
C1263      C1268   1.409       .  A
C1263      C1272   1.403       .  A
O1264      H1280   0.992       .  S
O1266      H1277   0.992       .  S
C1268      C1269   1.402       .  A
C1268      O1273   1.371       .  S
C1269      C1270   1.407       .  A
C1269      H1274   1.083       .  S
C1270      C1271   1.414       .  A
C1271      C1272   1.402       .  A
C1271      O1275   1.372       .  S
C1272      H1276   1.084       .  S
O1273      H1278   0.991       .  S
O1275      H1279   0.992       .  S
C1281      C1282   1.406       .  A
C1281      C1286   1.400       .  A
C1281      H1291   1.083       .  S
C1282      C1283   1.411       .  A
C1282      C1287   1.490       .  S
C1283      C1284   1.401       .  A
C1283      O1288   1.372       .  S
C1284      C1285   1.404       .  A
C1284      H1289   1.084       .  S
C1285      C1286   1.409       .  A
C1286      O1290   1.372       .  S
C1287      C1292   1.411       .  A
C1287      C1296   1.406       .  A
O1288      H1304   0.992       .  S
O1290      H1301   0.992       .  S
C1292      C1293   1.401       .  A
C1292      O1297   1.372       .  S
C1293      C1294   1.404       .  A
C1293      H1298   1.084       .  S
C1294      C1295   1.409       .  A
C1295      C1296   1.401       .  A
C1295      O1299   1.372       .  S
C1296      H1300   1.083       .  S
O1297      H1302   0.992       .  S
O1299      H1303   0.992       .  S
C1305      C1306   1.403       .  A
C1305      C1310   1.401       .  A
C1305      H1315   1.083       .  S
C1306      C1307   1.408       .  A
C1306      C1311   1.480       .  S
C1307      C1308   1.400       .  A
C1307      O1312   1.372       .  S
C1308      C1309   1.403       .  A
C1308      H1313   1.084       .  S
C1309      C1310   1.408       .  A
C1310      O1314   1.372       .  S
C1311      C1316   1.407       .  A
C1311      C1320   1.400       .  A
O1312      H1328   0.992       .  S
O1314      H1325   0.992       .  S
C1316      C1317   1.403       .  A
C1316      O1321   1.372       .  S
C1317      C1318   1.408       .  A
C1317      H1322   1.083       .  S
C1318      C1319   1.414       .  A
C1319      C1320   1.400       .  A
C1319      O1323   1.371       .  S
C1320      H1324   1.084       .  S
O1321      H1326   0.991       .  S
O1323      H1327   0.992       .  S
C1329      C1330   1.406       .  A
C1329      C1334   1.400       .  A
C1329      H1339   1.083       .  S
C1330      C1331   1.411       .  A
C1330      C1335   1.490       .  S
C1331      C1332   1.401       .  A
C1331      O1336   1.371       .  S
C1332      C1333   1.404       .  A
C1332      H1337   1.084       .  S
C1333      C1334   1.409       .  A
C1334      O1338   1.372       .  S
C1335      C1340   1.410       .  A
C1335      C1344   1.407       .  A
O1336      H1352   0.992       .  S
O1338      H1349   0.992       .  S
C1340      C1341   1.398       .  A
C1340      O1345   1.372       .  S
C1341      C1342   1.404       .  A
C1341      H1346   1.084       .  S
C1342      C1343   1.410       .  A
C1343      C1344   1.403       .  A
C1343      O1347   1.372       .  S
C1344      H1348   1.083       .  S
O1345      H1350   0.992       .  S
O1347      H1351   0.992       .  S
C1353      C1354   1.406       .  A
C1353      C1358   1.400       .  A
C1353      H1363   1.083       .  S
C1354      C1355   1.412       .  A
C1354      C1359   1.489       .  S
C1355      C1356   1.401       .  A
C1355      O1360   1.371       .  S
C1356      C1357   1.401       .  A
C1356      H1361   1.084       .  S
C1357      C1358   1.406       .  A
C1358      O1362   1.372       .  S
C1359      C1364   1.409       .  A
C1359      C1368   1.405       .  A
O1360      H1376   0.992       .  S
O1362      H1373   0.992       .  S
C1364      C1365   1.400       .  A
C1364      O1369   1.373       .  S
C1365      C1366   1.407       .  A
C1365      H1370   1.083       .  S
C1366      C1367   1.412       .  A
C1367      C1368   1.402       .  A
C1367      O1371   1.371       .  S
C1368      H1372   1.083       .  S
O1369      H1374   0.992       .  S
O1371      H1375   0.992       .  S
C1377      C1378   1.401       .  A
C1377      C1382   1.401       .  A
C1377      H1387   1.084       .  S
C1378      C1379   1.405       .  A
C1378      C1383   1.478       .  S
C1379      C1380   1.399       .  A
C1379      O1384   1.373       .  S
C1380      C1381   1.407       .  A
C1380      H1385   1.083       .  S
C1381      C1382   1.415       .  A
C1382      O1386   1.372       .  S
C1383      C1388   1.406       .  A
C1383      C1392   1.402       .  A
O1384      H1400   0.992       .  S
O1386      H1397   0.992       .  S
C1388      C1389   1.400       .  A
C1388      O1393   1.372       .  S
C1389      C1390   1.405       .  A
C1389      H1394   1.083       .  S
C1390      C1391   1.413       .  A
C1391      C1392   1.400       .  A
C1391      O1395   1.372       .  S
C1392      H1396   1.084       .  S
O1393      H1398   0.992       .  S
O1395      H1399   0.992       .  S
C1401      C1402   1.402       .  A
C1401      C1406   1.398       .  A
C1401      H1411   1.084       .  S
C1402      C1403   1.408       .  A
C1402      C1407   1.479       .  S
C1403      C1404   1.401       .  A
C1403      O1408   1.372       .  S
C1404      C1405   1.405       .  A
C1404      H1409   1.084       .  S
C1405      C1406   1.410       .  A
C1406      O1410   1.372       .  S
C1407      C1412   1.408       .  A
C1407      C1416   1.404       .  A
O1408      H1424   0.992       .  S
O1410      H1421   0.992       .  S
C1412      C1413   1.399       .  A
C1412      O1417   1.372       .  S
C1413      C1414   1.401       .  A
C1413      H1418   1.084       .  S
C1414      C1415   1.407       .  A
C1415      C1416   1.400       .  A
C1415      O1419   1.372       .  S
C1416      H1420   1.084       .  S
O1417      H1422   0.992       .  S
O1419      H1423   0.992       .  S
C1425      C1426   1.405       .  A
C1425      C1430   1.400       .  A
C1425      H1435   1.084       .  S
C1426      C1427   1.411       .  A
C1426      C1431   1.486       .  S
C1427      C1428   1.402       .  A
C1427      O1432   1.373       .  S
C1428      C1429   1.402       .  A
C1428      H1433   1.084       .  S
C1429      C1430   1.407       .  A
C1430      O1434   1.372       .  S
C1431      C1436   1.410       .  A
C1431      C1440   1.406       .  A
O1432      H1448   0.992       .  S
O1434      H1445   0.992       .  S
C1436      C1437   1.399       .  A
C1436      O1441   1.371       .  S
C1437      C1438   1.404       .  A
C1437      H1442   1.084       .  S
C1438      C1439   1.409       .  A
C1439      C1440   1.401       .  A
C1439      O1443   1.372       .  S
C1440      H1444   1.084       .  S
O1441      H1446   0.992       .  S
O1443      H1447   0.992       .  S
C1449      C1450   1.404       .  A
C1449      C1454   1.399       .  A
C1449      H1459   1.084       .  S
C1450      C1451   1.409       .  A
C1450      C1455   1.481       .  S
C1451      C1452   1.400       .  A
C1451      O1456   1.372       .  S
C1452      C1453   1.403       .  A
C1452      H1457   1.084       .  S
C1453      C1454   1.407       .  A
C1454      O1458   1.372       .  S
C1455      C1460   1.410       .  A
C1455      C1464   1.404       .  A
O1456      H1472   0.992       .  S
O1458      H1469   0.991       .  S
C1460      C1461   1.399       .  A
C1460      O1465   1.372       .  S
C1461      C1462   1.401       .  A
C1461      H1466   1.084       .  S
C1462      C1463   1.405       .  A
C1463      C1464   1.399       .  A
C1463      O1467   1.371       .  S
C1464      H1468   1.083       .  S
O1465      H1470   0.992       .  S
O1467      H1471   0.992       .  S
C1473      C1474   1.400       .  A
C1473      C1478   1.400       .  A
C1473      H1483   1.084       .  S
C1474      C1475   1.404       .  A
C1474      C1479   1.474       .  S
C1475      C1476   1.398       .  A
C1475      O1480   1.372       .  S
C1476      C1477   1.407       .  A
C1476      H1481   1.083       .  S
C1477      C1478   1.414       .  A
C1478      O1482   1.371       .  S
C1479      C1484   1.406       .  A
C1479      C1488   1.400       .  A
O1480      H1496   0.992       .  S
O1482      H1493   0.992       .  S
C1484      C1485   1.399       .  A
C1484      O1489   1.372       .  S
C1485      C1486   1.406       .  A
C1485      H1490   1.083       .  S
C1486      C1487   1.412       .  A
C1487      C1488   1.398       .  A
C1487      O1491   1.372       .  S
C1488      H1492   1.084       .  S
O1489      H1494   0.992       .  S
O1491      H1495   0.992       .  S
C1497      C1498   1.405       .  A
C1497      C1502   1.399       .  A
C1497      H1507   1.083       .  S
C1498      C1499   1.410       .  A
C1498      C1503   1.484       .  S
C1499      C1500   1.400       .  A
C1499      O1504   1.371       .  S
C1500      C1501   1.402       .  A
C1500      H1505   1.084       .  S
C1501      C1502   1.407       .  A
C1502      O1506   1.372       .  S
C1503      C1508   1.408       .  A
C1503      C1512   1.404       .  A
O1504      H1520   0.992       .  S
O1506      H1517   0.992       .  S
C1508      C1509   1.400       .  A
C1508      O1513   1.372       .  S
C1509      C1510   1.406       .  A
C1509      H1514   1.084       .  S
C1510      C1511   1.411       .  A
C1511      C1512   1.402       .  A
C1511      O1515   1.371       .  S
C1512      H1516   1.084       .  S
O1513      H1518   0.992       .  S
O1515      H1519   0.992       .  S
C1521      C1522   1.404       .  A
C1521      C1526   1.398       .  A
C1521      H1531   1.084       .  S
C1522      C1523   1.409       .  A
C1522      C1527   1.478       .  S
C1523      C1524   1.398       .  A
C1523      O1528   1.372       .  S
C1524      C1525   1.402       .  A
C1524      H1529   1.084       .  S
C1525      C1526   1.407       .  A
C1526      O1530   1.371       .  S
C1527      C1532   1.408       .  A
C1527      C1536   1.404       .  A
O1528      H1544   0.992       .  S
O1530      H1541   0.991       .  S
C1532      C1533   1.399       .  A
C1532      O1537   1.372       .  S
C1533      C1534   1.403       .  A
C1533      H1538   1.084       .  S
C1534      C1535   1.407       .  A
C1535      C1536   1.398       .  A
C1535      O1539   1.372       .  S
C1536      H1540   1.084       .  S
O1537      H1542   0.992       .  S
O1539      H1543   0.992       .  S
