geometry optimzed in LAMMPS
_audit_creation_date              2020-11-30 
_audit_creation_method            'lammps2cif' 
_symmetry_space_group_name_H-M    'P1' 
_symmetry_Int_Tables_number       1 
_symmetry_cell_setting            triclinic 
loop_ 
_symmetry_equiv_pos_as_xyz 
  x,y,z 
_cell_length_a                    24.26074327 
_cell_length_b                    24.907168567816967 
_cell_length_c                    23.74655886296371 
_cell_angle_alpha                 89.03511356634176 
_cell_angle_beta                  90.12172351707233 
_cell_angle_gamma                 89.59181713270945 
loop_ 
_atom_site_label 
_atom_site_type_symbol 
_atom_site_fract_x 
_atom_site_fract_y 
_atom_site_fract_z 
_atom_site_charge 
C1          C  0.59077500  0.66914896  0.59208012     0.86200
C2          C  0.64998190  0.65170013  0.57979127    -0.54000
C3          C  0.66013783  0.59839388  0.58775190     0.09200
C4          C  0.60958966  0.56557356  0.60636294     0.20100
C5          C  0.55579391  0.63259722  0.55390232    -0.54700
C6          C  0.56543927  0.57841937  0.56154548     0.09300
C7          C  0.57782587  0.64740998  0.65143549    -0.54300
C8          C  0.58803381  0.59389891  0.65914760     0.09800
H9          H  0.68207617  0.67974837  0.56740737     0.14300
H10         H  0.61799587  0.52202909  0.61307213     0.00100
H11         H  0.52299560  0.64649996  0.52617499     0.14600
H12         H  0.56333563  0.67270462  0.68528047     0.14400
C13         C  0.01708379  0.17064595  0.58907202     0.86200
C14         C  0.02623075  0.15675294  0.65195577    -0.54000
C15         C  0.01669103  0.10421891  0.66619125     0.09200
C16         C  0.99529794  0.07086858  0.61705088     0.20100
C17         C  0.05122484  0.12919807  0.55694238    -0.54700
C18         C  0.04080366  0.07663321  0.57139394     0.09300
C19         C  0.95682393  0.15437563  0.57963141    -0.54300
C20         C  0.94510720  0.10294751  0.59464941     0.09800
H21         H  0.03871079  0.18586161  0.68289639     0.14300
H22         H  0.98475059  0.02933907  0.63004169     0.00100
H23         H  0.08141764  0.14169536  0.52605628     0.14600
H24         H  0.92415715  0.18192533  0.56665288     0.14400
C25         C  0.08818923  0.66987198  0.01351915     0.86200
C26         C  0.08135971  0.65605919  0.95078744    -0.54000
C27         C  0.09575649  0.60491260  0.93754670     0.09200
C28         C  0.11763008  0.57163440  0.98837493     0.20100
C29         C  0.05588024  0.62623580  0.04502343    -0.54700
C30         C  0.07067300  0.57453087  0.03279005     0.09300
C31         C  0.14934764  0.65687435  0.02501017    -0.54300
C32         C  0.16520689  0.60569243  0.01248224     0.09800
H33         H  0.06866664  0.68414616  0.91782183     0.14300
H34         H  0.13089007  0.53062049  0.97723501     0.00100
H35         H  0.02332914  0.63689295  0.07397253     0.14600
H36         H  0.17808588  0.68610675  0.04118120     0.14400
C37         C  0.43421122  0.50778705  0.51257997     0.86200
C38         C  0.45313869  0.45154155  0.53180574    -0.54000
C39         C  0.50836958  0.44152149  0.52629198     0.09200
C40         C  0.54048905  0.49020856  0.50129046     0.20100
C41         C  0.47093999  0.54640633  0.54568802    -0.54700
C42         C  0.52618424  0.53800651  0.53971136     0.09300
C43         C  0.45533976  0.51471392  0.45224429    -0.54300
C44         C  0.51009293  0.50471810  0.44576569     0.09800
H45         H  0.42411868  0.42086889  0.54509522     0.14300
H46         H  0.58532014  0.48291695  0.49586350     0.00100
H47         H  0.45629013  0.58085892  0.56851700     0.14600
H48         H  0.42901188  0.52672720  0.41706703     0.14400
C49         C  0.59177715  0.92819711  0.08145364     0.86200
C50         C  0.58096610  0.93859852  0.14437607    -0.54000
C51         C  0.59025656  0.99014835  0.16049849     0.09200
C52         C  0.61169468  0.02661809  0.11274384     0.20100
C53         C  0.55803333  0.97129601  0.04914524    -0.54700
C54         C  0.56742093  0.02312386  0.06532436     0.09300
C55         C  0.65223140  0.94579325  0.07424997    -0.54300
C56         C  0.66284056  0.99653784  0.09136917     0.09800
H57         H  0.56841157  0.90747145  0.17412005     0.14300
H58         H  0.62148023  0.06738196  0.12741326     0.00100
H59         H  0.52879450  0.96059842  0.01678737     0.14600
H60         H  0.68593673  0.91955406  0.06261382     0.14400
C61         C  0.01737602  0.43225704  0.07318284     0.86200
C62         C  0.95707061  0.45102099  0.06278342    -0.54000
C63         C  0.94557060  0.50223747  0.07874505     0.09200
C64         C  0.99585525  0.53075964  0.10362639     0.20100
C65         C  0.05283590  0.47477419  0.04329940    -0.54700
C66         C  0.04182421  0.52674084  0.05832505     0.09300
C67         C  0.02570778  0.44211783  0.13612564    -0.54300
C68         C  0.01475899  0.49323811  0.15218010     0.09800
H69         H  0.92424294  0.42571295  0.04760126     0.14300
H70         H  0.98578290  0.57166849  0.11789200     0.00100
H71         H  0.08435892  0.46350031  0.01350139     0.14600
H72         H  0.03758315  0.41077666  0.16617268     0.14400
C73         C  0.51021349  0.16578851  0.02800712     0.86200
C74         C  0.45092180  0.14757329  0.04150697    -0.54000
C75         C  0.43855512  0.09683199  0.02528094     0.09200
C76         C  0.48770948  0.06736827  0.99794229     0.20100
C77         C  0.54669033  0.12262704  0.05664501    -0.54700
C78         C  0.53594370  0.07079253  0.04128547     0.09300
C79         C  0.51508152  0.15604311  0.96459408    -0.54300
C80         C  0.50434662  0.10496820  0.94885903     0.09800
H81         H  0.41873730  0.17243267  0.05801949     0.14300
H82         H  0.47724988  0.02671264  0.98347602     0.00100
H83         H  0.57766195  0.13317888  0.08722238     0.14600
H84         H  0.52550301  0.18735465  0.93411478     0.14400
C85         C  0.09615724  0.93620200  0.52892624     0.86200
C86         C  0.15628116  0.95249691  0.54139075    -0.54000
C87         C  0.16881880  0.00443788  0.52797265     0.09200
C88         C  0.11949054  0.03639688  0.50319789     0.20100
C89         C  0.06142644  0.97761516  0.56077332    -0.54700
C90         C  0.07238600  0.03029354  0.54714756     0.09300
C91         C  0.08903902  0.95116558  0.46640055    -0.54300
C92         C  0.10035156  0.00324965  0.45275580     0.09800
H93         H  0.18884076  0.92553522  0.55538685     0.14300
H94         H  0.13000537  0.07799302  0.49094364     0.00100
H95         H  0.03005612  0.96508881  0.59052654     0.14600
H96         H  0.07527909  0.92275470  0.43519378     0.14400
O97         O  0.92811745  0.01169852  0.10860891    -0.78800
C98         C  0.05400547  0.89728051  0.05480988     0.82300
O99         O  0.09277224  0.08203565  0.18852995    -0.79900
O100        O  0.17939651  0.02092925  0.01580471    -0.81400
O101        O  0.99910538  0.07589080  0.93156346    -0.81100
O102        O  0.91453636  0.07460085  0.04296640    -0.79800
Zn103      Zn  0.01108497  0.99866299  0.11177150     1.55700
O104        O  0.07425372  0.02428691  0.92398615    -0.81200
Cd105      Cd  0.99391613  0.09058364  0.01672009     1.59700
Cd106      Cd  0.09869600  0.09713455  0.10237040     1.59600
O107        O  0.00729225  0.17173728  0.02605874    -0.81200
O108        O  0.04959217  0.04715828  0.06023256    -1.91700
Cd109      Cd  0.09568950  0.00512999  0.00661427     1.59900
O110        O  0.07804291  0.17709016  0.08496121    -0.81100
O111        O  0.08227821  0.92404445  0.01909677    -0.79800
C112        C  0.06614023  0.04618739  0.21596616     0.82800
C113        C  0.89562878  0.04215053  0.07992443     0.82400
O114        O  0.02601417  0.91997499  0.09325919    -0.78700
C115        C  0.03447009  0.05105687  0.90199228     0.83200
O116        O  0.03574438  0.01242926  0.19110412    -0.78800
C117        C  0.04142609  0.19961419  0.05367885     0.83400
C118        C  0.20510974  0.05547646  0.04467421     0.83700
O119        O  0.18043845  0.08668757  0.07858556    -0.81200
O120        O  0.42360791  0.08656178  0.56780344    -0.78800
C121        C  0.53892051  0.06919892  0.71091978     0.82300
O122        O  0.59108524  0.18654285  0.51260218    -0.79900
O123        O  0.68521297  0.03650799  0.60771229    -0.81400
O124        O  0.53882114  0.92790053  0.53361859    -0.81100
O125        O  0.43755000  0.01630488  0.51363607    -0.79800
Zn126      Zn  0.50354959  0.10682938  0.59113590     1.55700
O127        O  0.59633261  0.93467079  0.60538424    -0.81200
Cd128      Cd  0.52126613  0.00611874  0.50872573     1.59700
Cd129      Cd  0.60974172  0.10381561  0.50572517     1.59600
O130        O  0.54401910  0.01292866  0.42556889    -0.81200
O131        O  0.55888453  0.06017599  0.55541069    -1.91700
Cd132      Cd  0.60255968  0.01793151  0.61340102     1.59900
O133        O  0.60428482  0.07983679  0.42130244    -0.81100
O134        O  0.57569205  0.03705507  0.69300642    -0.79800
C135        C  0.55440342  0.21178446  0.54069607     0.82800
C136        C  0.40476028  0.04868728  0.53756355     0.82400
O137        O  0.50945627  0.09741977  0.67668135    -0.78700
C138        C  0.56894318  0.90589558  0.57143608     0.83200
O139        O  0.51955965  0.18616309  0.57124262    -0.78800
C140        C  0.57675651  0.04287523  0.39759029     0.83400
C141        C  0.71326388  0.06418263  0.57263353     0.83700
O142        O  0.69113967  0.09054923  0.53175744    -0.81200
O143        O  0.68764370  0.57392534  0.02321782    -0.78800
C144        C  0.56524478  0.54723097  0.89455650     0.82300
O145        O  0.53236744  0.67351537  0.08922719    -0.79900
O146        O  0.42459354  0.52990257  0.01090320    -0.81400
O147        O  0.58597957  0.41607585  0.07571852    -0.81100
O148        O  0.68572517  0.50839024  0.08793445    -0.79800
Zn149      Zn  0.60701270  0.59018393  0.00670049     1.55700
O150        O  0.51294098  0.42444561  0.01865110    -0.81200
Cd151      Cd  0.60227216  0.49453516  0.09713611     1.59700
Cd152      Cd  0.51125109  0.59289145  0.10217793     1.59600
O153        O  0.58364340  0.50075894  0.18142082    -0.81200
O154        O  0.55689227  0.54660823  0.05135808    -1.91700
Cd155      Cd  0.50645015  0.50598095  0.00046410     1.59900
O156        O  0.52466951  0.56977563  0.18667202    -0.81100
O157        O  0.52788872  0.51760329  0.91612660    -0.79800
C158        C  0.56490016  0.69628933  0.05402990     0.82800
C159        C  0.71225881  0.54090287  0.05633096     0.82400
O160        O  0.59563706  0.57628452  0.92508061    -0.78700
C161        C  0.54720248  0.39576000  0.04701995     0.83200
O162        O  0.59370872  0.66867629  0.02023001    -0.78800
C163        C  0.55307785  0.53193241  0.20987358     0.83400
C164        C  0.39996947  0.56074505  0.04534572     0.83700
O165        O  0.42685555  0.58602628  0.08283683    -0.81200
O166        O  0.02237818  0.68226155  0.57553492    -0.78800
C167        C  0.89214448  0.56099116  0.56411251     0.82300
O168        O  0.09230316  0.52496304  0.67596942    -0.79900
O169        O  0.00371653  0.42906344  0.52430165    -0.81400
O170        O  0.06317252  0.58012293  0.40731064    -0.81100
O171        O  0.08167012  0.67882986  0.50391045    -0.79800
Zn172      Zn  0.00595531  0.60431522  0.59600309     1.55700
O173        O  0.99864980  0.51866959  0.42140035    -0.81200
Cd174      Cd  0.08802684  0.59705615  0.48894072     1.59700
Cd175      Cd  0.09405041  0.50660427  0.59151831     1.59600
O176        O  0.17062268  0.57584845  0.49405995    -0.81200
O177        O  0.04449094  0.55547357  0.54650038    -1.91700
Cd178      Cd  0.99077966  0.50949087  0.50678483     1.59900
O179        O  0.17367363  0.51542263  0.56473537    -0.81100
O180        O  0.91105997  0.52788933  0.52866746    -0.79800
C181        C  0.06568243  0.56117145  0.70180502     0.82800
C182        C  0.05401986  0.70524562  0.53989655     0.82400
O183        O  0.92373754  0.59167319  0.59182043    -0.78700
C184        C  0.02843058  0.54680656  0.38831130     0.83200
O185        O  0.03182699  0.59283320  0.67665722    -0.78800
C186        C  0.19692136  0.54334926  0.52641921     0.83400
C187        C  0.03836411  0.40251582  0.55402506     0.83700
O188        O  0.07504470  0.42637857  0.58256531    -0.81200
C189        C  0.26453902  0.99044984  0.49580090    -0.20600
C190        C  0.22767511  0.02187738  0.52651145    -0.07100
C191        C  0.24857905  0.06425557  0.55874777     0.13700
C192        C  0.30609321  0.07319001  0.56046084    -0.20600
C193        C  0.34359527  0.04052717  0.53077716    -0.07100
C194        C  0.32154177  0.99895483  0.49689884     0.13700
C195        C  0.35673341  0.96197282  0.46191353    -0.24000
H196        H  0.24832323  0.95769332  0.47139100     0.15000
H197        H  0.32181752  0.10505955  0.58643571     0.15000
C198        C  0.21059319  0.09798898  0.59365256    -0.23900
H199        H  0.33158283  0.93359643  0.43721933     0.05300
H200        H  0.38407848  0.93718828  0.48961026     0.08500
H201        H  0.38137119  0.98579320  0.43122723     0.08500
H202        H  0.18780246  0.07157292  0.62343982     0.08500
H203        H  0.18087542  0.11981281  0.56594176     0.08500
H204        H  0.23346971  0.12808061  0.61837608     0.05200
C205        C  0.11878375  0.84053783  0.56486593    -0.20600
C206        C  0.08018806  0.87688475  0.54043638    -0.07100
C207        C  0.02849855  0.85529341  0.52275059     0.13700
C208        C  0.02045653  0.79926133  0.52409846    -0.20600
C209        C  0.06195203  0.76391388  0.54269629    -0.07100
C210        C  0.11098494  0.78483353  0.56472405     0.13700
C211        C  0.15542615  0.74812268  0.58831394    -0.24000
H212        H  0.15603961  0.85442981  0.58423899     0.15000
H213        H  0.98189202  0.78294507  0.50906254     0.15000
C214        C  0.98063918  0.88892886  0.50105548    -0.23900
H215        H  0.19103160  0.77085794  0.60482930     0.05300
H216        H  0.17094465  0.72135469  0.55487963     0.08500
H217        H  0.13847451  0.72329809  0.62335278     0.08500
H218        H  0.97085729  0.87746879  0.45717978     0.08500
H219        H  0.98777382  0.93259680  0.50096702     0.08500
H220        H  0.94392577  0.88122585  0.52777713     0.05200
C221        C  0.12311933  0.05437357  0.30255509    -0.20600
C222        C  0.07188331  0.04243939  0.27818213    -0.07100
C223        C  0.02835422  0.02471029  0.31345544     0.13700
C224        C  0.03831076  0.01646716  0.37112815    -0.20600
C225        C  0.09067168  0.02427866  0.39461384    -0.07100
C226        C  0.13332737  0.04476846  0.36018237     0.13700
C227        C  0.19065701  0.05270110  0.38260826    -0.24000
H228        H  0.15636536  0.06827877  0.27578233     0.15000
H229        H  0.00551602  0.00135017  0.39788681     0.15000
C230        C  0.97125526  0.01416776  0.29106629    -0.23900
H231        H  0.21921409  0.06740740  0.34936946     0.05300
H232        H  0.20693828  0.01378924  0.39882009     0.08500
H233        H  0.19036680  0.08266523  0.41656326     0.08500
H234        H  0.97185268  0.97896526  0.26307672     0.08500
H235        H  0.95562980  0.05011116  0.26761183     0.08500
H236        H  0.94168731  0.00506279  0.32552075     0.05200
C237        C  0.48605144  0.25797918  0.06881712    -0.20600
C238        C  0.52506077  0.22430811  0.04226917    -0.07100
C239        C  0.57613923  0.24786384  0.02536149     0.13700
C240        C  0.58264538  0.30393788  0.02817493    -0.20600
C241        C  0.54042447  0.33705162  0.04813333    -0.07100
C242        C  0.49258729  0.31373404  0.07065438     0.13700
C243        C  0.44843288  0.34761783  0.09769689    -0.24000
H244        H  0.45011244  0.24226653  0.08843811     0.15000
H245        H  0.62050350  0.32230179  0.01356893     0.15000
C246        C  0.62466816  0.21506762  0.00493769    -0.23900
H247        H  0.41436330  0.32285003  0.11499275     0.05300
H248        H  0.43036175  0.37607439  0.06616276     0.08500
H249        H  0.46650973  0.37053630  0.13286800     0.08500
H250        H  0.61473458  0.19298587  0.96627863     0.08500
H251        H  0.63853632  0.18641542  0.03829406     0.08500
H252        H  0.66053484  0.24085909  0.99460940     0.05200
C253        C  0.55729277  0.06363715  0.87177915    -0.20600
C254        C  0.50893995  0.08922610  0.88917887    -0.07100
C255        C  0.46972960  0.10614356  0.84859977     0.13700
C256        C  0.48039179  0.09818863  0.79125396    -0.20600
C257        C  0.52963328  0.07390094  0.77296262    -0.07100
C258        C  0.56849379  0.05582696  0.81436339     0.13700
C259        C  0.62285544  0.03016436  0.79917011    -0.24000
H260        H  0.58748422  0.05156601  0.90339160     0.15000
H261        H  0.44995071  0.11152065  0.76047618     0.15000
C262        C  0.41645284  0.13245212  0.86581006    -0.23900
H263        H  0.64852964  0.02109939  0.83699245     0.05300
H264        H  0.64673679  0.05775061  0.77145232     0.08500
H265        H  0.61570265  0.99157426  0.77773449     0.08500
H266        H  0.42483378  0.16983147  0.88901513     0.08500
H267        H  0.39305326  0.10424762  0.89315500     0.08500
H268        H  0.39021552  0.14312717  0.82884490     0.05200
C269        C  0.30294610  0.02542029  0.05880985    -0.20600
C270        C  0.26489221  0.06254210  0.03577759    -0.07100
C271        C  0.28425837  0.10768002  0.00543594     0.13700
C272        C  0.34107342  0.11533329  0.99964861    -0.20600
C273        C  0.37964405  0.07967547  0.02442790    -0.07100
C274        C  0.36027574  0.03387978  0.05398477     0.13700
C275        C  0.39978586  0.99578686  0.08291820    -0.24000
H276        H  0.28779450  0.99086517  0.08224181     0.15000
H277        H  0.35562423  0.15077827  0.97733116     0.15000
C278        C  0.24490420  0.14833333  0.97963862    -0.23900
H279        H  0.37798484  0.96359807  0.10670938     0.05300
H280        H  0.42564876  0.01824640  0.11289353     0.08500
H281        H  0.42647834  0.97655206  0.05115995     0.08500
H282        H  0.21979411  0.16711992  0.01311128     0.08500
H283        H  0.21717386  0.12828704  0.94938449     0.08500
H284        H  0.26698305  0.18084212  0.95661730     0.05200
C285        C  0.99180844  0.49323348  0.30997197    -0.20600
C286        C  0.02332449  0.53749589  0.32660882    -0.07100
C287        C  0.04942510  0.56931512  0.28427746     0.13700
C288        C  0.04523323  0.55425091  0.22756700    -0.20600
C289        C  0.01553029  0.50877769  0.21204778    -0.07100
C290        C  0.98648528  0.47922217  0.25364192     0.13700
C291        C  0.94734740  0.43413944  0.24052993    -0.24000
H292        H  0.97037441  0.46897680  0.34116168     0.15000
H293        H  0.06609870  0.57755511  0.19511955     0.15000
C294        C  0.08147101  0.61911873  0.29773157    -0.23900
H295        H  0.96467517  0.39550102  0.25673823     0.05300
H296        H  0.93806957  0.43058969  0.19511043     0.08500
H297        H  0.90722377  0.44146807  0.26157551     0.10100
H298        H  0.11813428  0.60843020  0.32370359     0.08500
H299        H  0.05470115  0.64780070  0.32052267     0.08500
H300        H  0.09650370  0.63989604  0.25900462     0.05200
C301        C  0.86386470  0.52396336  0.01941457    -0.20600
C302        C  0.88837680  0.52475617  0.07317404    -0.07100
C303        C  0.85470594  0.53781779  0.12000650     0.13700
C304        C  0.79767819  0.54402244  0.11251604    -0.20600
C305        C  0.77315405  0.54022509  0.05944891    -0.07100
C306        C  0.80684488  0.53220867  0.01187693     0.13700
C307        C  0.78248287  0.52928723  0.95366154    -0.24000
H308        H  0.88926298  0.51454210  0.98333916     0.15000
H309        H  0.77182910  0.55139544  0.14881851     0.15000
C310        C  0.87561412  0.54424061  0.17896512    -0.23900
H311        H  0.81446841  0.52113962  0.92145897     0.05300
H312        H  0.76224139  0.56809616  0.94236168     0.08500
H313        H  0.75165041  0.49660665  0.95227079     0.08500
H314        H  0.86315711  0.58427197  0.19465545     0.08500
H315        H  0.92042016  0.54215063  0.18169298     0.08500
H316        H  0.85770904  0.51279531  0.20690090     0.05200
C317        C  0.99425006  0.34475972  0.02356861    -0.20600
C318        C  0.03103104  0.37382773  0.05726912    -0.07100
C319        C  0.07782438  0.34568048  0.07921712     0.13700
C320        C  0.07977977  0.28937685  0.07700664    -0.20600
C321        C  0.03858196  0.25972036  0.05003086    -0.07100
C322        C  0.99673635  0.28854061  0.02010311     0.13700
C323        C  0.95364057  0.26126888  0.98483598    -0.24000
H324        H  0.96276811  0.36562469  0.99949385     0.15000
H325        H  0.11428156  0.26855590  0.09685384     0.15000
C326        C  0.12678071  0.37283767  0.10547658    -0.23900
H327        H  0.92517442  0.29054906  0.96394753     0.05300
H328        H  0.92807431  0.23448653  0.01178360     0.08500
H329        H  0.97384995  0.23796151  0.95109095     0.08500
H330        H  0.13014036  0.36073113  0.15057916     0.08500
H331        H  0.12510252  0.41712144  0.10235328     0.08500
H332        H  0.16495414  0.36009937  0.08352958     0.05200
C333        C  0.63138535  0.02870373  0.24693968    -0.20600
C334        C  0.58502598  0.00744868  0.21992280    -0.07100
C335        C  0.53573915  0.00079465  0.25080486     0.13700
C336        C  0.53480076  0.01324797  0.30809807    -0.20600
C337        C  0.58125446  0.03367599  0.33581030    -0.07100
C338        C  0.63031849  0.04173401  0.30449302     0.13700
C339        C  0.68232339  0.06163324  0.33167427    -0.24000
H340        H  0.66921254  0.03368701  0.22320706     0.15000
H341        H  0.49676749  0.00741522  0.33126881     0.15000
C342        C  0.48272776  0.98217567  0.22463692    -0.23900
H343        H  0.71726046  0.06287164  0.30151456     0.05300
H344        H  0.69424176  0.03452148  0.36732843     0.08500
H345        H  0.67581738  0.10297282  0.34715664     0.08500
H346        H  0.47048633  0.94317924  0.24399282     0.08500
H347        H  0.48576421  0.97741126  0.17865505     0.08500
H348        H  0.44968554  0.01228858  0.23212418     0.05200
C349        C  0.52737097  0.78655489  0.07813755    -0.20600
C350        C  0.56934925  0.75623276  0.05290998    -0.07100
C351        C  0.61399691  0.78413177  0.02760981     0.13700
C352        C  0.61747640  0.84012374  0.03297981    -0.20600
C353        C  0.57900528  0.86983714  0.06457328    -0.07100
C354        C  0.53056251  0.84264843  0.08262103     0.13700
C355        C  0.48093950  0.87063727  0.10686063    -0.24000
H356        H  0.49125500  0.76636511  0.09458394     0.15000
H357        H  0.65095226  0.86019969  0.01184880     0.15000
C358        C  0.65945070  0.75582870  0.99612687    -0.23900
H359        H  0.44371052  0.86017650  0.08218746     0.05300
H360        H  0.48401558  0.91470863  0.10531222     0.08500
H361        H  0.47495381  0.85740045  0.15129057     0.08500
H362        H  0.64220571  0.73562901  0.95875097     0.08500
H363        H  0.68033903  0.72603188  0.02434198     0.08500
H364        H  0.69142932  0.78411947  0.98063971     0.05200
C365        C  0.81543968  0.99743178  0.12570713    -0.20600
C366        C  0.83460893  0.03777718  0.08864064    -0.07100
C367        C  0.79487875  0.07061275  0.05973877     0.13700
C368        C  0.73840508  0.05866536  0.06483584    -0.20600
C369        C  0.72043294  0.01527224  0.09788164    -0.07100
C370        C  0.75923123  0.98610990  0.13109660     0.13700
C371        C  0.74305297  0.94238427  0.17248404    -0.24000
H372        H  0.84456881  0.97319473  0.14997615     0.15000
H373        H  0.70818077  0.08160395  0.04043418     0.15000
C374        C  0.81082957  0.11762654  0.02254793    -0.23900
H375        H  0.75944899  0.95188892  0.21483825     0.05300
H376        H  0.76077817  0.90342554  0.15905919     0.08500
H377        H  0.69791963  0.93798937  0.17687119     0.08500
H378        H  0.83443704  0.10346836  0.98561611     0.08500
H379        H  0.83576208  0.14637247  0.04694694     0.08500
H380        H  0.77411897  0.13977872  0.00607689     0.05200
C381        C  0.55692650  0.36000653  0.49004315    -0.20600
C382        C  0.53094955  0.38566668  0.53509398    -0.07100
C383        C  0.52035858  0.35522698  0.58479960     0.13700
C384        C  0.52976330  0.29924251  0.58554597    -0.20600
C385        C  0.55147634  0.27238235  0.53867334    -0.07100
C386        C  0.56777855  0.30409979  0.49123473     0.13700
C387        C  0.59446553  0.27942517  0.44055258    -0.24000
H388        H  0.56642933  0.38339978  0.45248779     0.15000
H389        H  0.51962682  0.27616144  0.62315628     0.15000
C390        C  0.50086359  0.38181187  0.63791384    -0.23900
H391        H  0.60276240  0.30984679  0.40693854     0.05300
H392        H  0.56699868  0.24857763  0.42265234     0.08500
H393        H  0.63455625  0.26087012  0.45278840     0.08500
H394        H  0.45914668  0.39939063  0.63233794     0.08500
H395        H  0.53004244  0.41400139  0.64945523     0.08500
H396        H  0.49881357  0.35275301  0.67383451     0.05200
C397        C  0.34881311  0.55169296  0.55603703    -0.20600
C398        C  0.37141758  0.51592571  0.51642505    -0.07100
C399        C  0.33399986  0.48871599  0.48020109     0.13700
C400        C  0.27754565  0.50113739  0.48211807    -0.20600
C401        C  0.25666582  0.53776252  0.52055908    -0.07100
C402        C  0.29235168  0.56323189  0.55798935     0.13700
C403        C  0.27056043  0.60255854  0.60033273    -0.24000
H404        H  0.37410958  0.57009198  0.58751778     0.15000
H405        H  0.24915618  0.48044788  0.45469763     0.15000
C406        C  0.35052770  0.44553503  0.43938977    -0.23900
H407        H  0.30407457  0.61967954  0.62626060     0.05300
H408        H  0.24110208  0.58220247  0.62916428     0.08500
H409        H  0.24910140  0.63624632  0.57801824     0.08500
H410        H  0.32573395  0.40896998  0.44783273     0.08500
H411        H  0.39410763  0.43285688  0.44211367     0.08500
H412        H  0.34207149  0.45980436  0.39563508     0.05200
C413        C  0.55522872  0.56673185  0.30755453    -0.20600
C414        C  0.54970564  0.52288359  0.27165105    -0.07100
C415        C  0.53863697  0.47139657  0.29517385     0.13700
C416        C  0.53143009  0.46557171  0.35364316    -0.20600
C417        C  0.53484046  0.50977199  0.38911289    -0.07100
C418        C  0.54776889  0.56073835  0.36602807     0.13700
C419        C  0.55126414  0.60916794  0.40293746    -0.24000
H420        H  0.56399806  0.60602142  0.28961030     0.15000
H421        H  0.51935896  0.42704886  0.37133686     0.15000
C422        C  0.53024424  0.42319792  0.25857815    -0.23900
H423        H  0.56208088  0.64594807  0.37842338     0.05300
H424        H  0.58342867  0.60227982  0.43559440     0.08500
H425        H  0.51099306  0.61633802  0.42370468     0.08500
H426        H  0.56890160  0.41348875  0.23593067     0.08500
H427        H  0.49676908  0.43162446  0.22762975     0.08500
H428        H  0.51854426  0.38707080  0.28375741     0.05200
C429        C  0.31456882  0.56186979  0.98615482    -0.20600
C430        C  0.33869098  0.56841202  0.03960616    -0.07100
C431        C  0.30382017  0.58265212  0.08502682     0.13700
C432        C  0.24712827  0.59192202  0.07513853    -0.20600
C433        C  0.22366706  0.58729561  0.02126627    -0.07100
C434        C  0.25799766  0.57145640  0.97635314     0.13700
C435        C  0.23628616  0.56789232  0.91717050    -0.24000
H436        H  0.34057656  0.55104965  0.95105739     0.15000
H437        H  0.22087671  0.60403450  0.10966352     0.15000
C438        C  0.32546147  0.58747938  0.14424857    -0.23900
H439        H  0.26917979  0.55705966  0.88686612     0.05300
H440        H  0.21916209  0.60746184  0.90390051     0.08500
H441        H  0.20401560  0.53675683  0.91482020     0.08500
H442        H  0.35463546  0.62145582  0.14666751     0.08500
H443        H  0.34647824  0.54954509  0.15742761     0.08500
H444        H  0.29179908  0.59523975  0.17475456     0.05200
C445        C  0.04853957  0.53795077  0.80244371    -0.20600
C446        C  0.07669076  0.56884391  0.76207798    -0.07100
C447        C  0.11400042  0.60834829  0.77952864     0.13700
C448        C  0.12130830  0.61716164  0.83716771    -0.20600
C449        C  0.09270459  0.58700693  0.87807361    -0.07100
C450        C  0.05579744  0.54684685  0.86039088     0.13700
C451        C  0.02217321  0.51504969  0.90205583    -0.24000
H452        H  0.01979706  0.50777618  0.78851469     0.15000
H453        H  0.14826371  0.64912208  0.85042056     0.15000
C454        C  0.14537524  0.64184870  0.73714816    -0.23900
H455        H  0.99267607  0.48807290  0.88085784     0.05300
H456        H  0.99823716  0.54246013  0.92932104     0.08500
H457        H  0.05013298  0.48965410  0.92798709     0.08500
H458        H  0.11602659  0.66484115  0.70994299     0.08500
H459        H  0.17104435  0.61536569  0.71050826     0.08500
H460        H  0.17302672  0.67091380  0.75786436     0.05200
C461        C  0.07756049  0.80543318  0.09118802    -0.20600
C462        C  0.05315602  0.83829035  0.04958263    -0.07100
C463        C  0.03090122  0.81461638  0.00130984     0.13700
C464        C  0.03916399  0.75965228  0.99263446    -0.20600
C465        C  0.07069047  0.72722250  0.03023804    -0.07100
C466        C  0.08515883  0.74993946  0.08305396     0.13700
C467        C  0.10850391  0.71781470  0.13216403    -0.24000
H468        H  0.09200188  0.82335910  0.12976314     0.15000
H469        H  0.01991895  0.74268481  0.95605544     0.15000
C470        C  0.99770708  0.84737798  0.95911698    -0.23900
H471        H  0.08194278  0.72366231  0.16963868     0.05300
H472        H  0.15063490  0.73208433  0.14199374     0.08500
H473        H  0.11054696  0.67413559  0.12517294     0.08500
H474        H  0.02362842  0.87925868  0.93987854     0.08500
H475        H  0.96197753  0.86619616  0.98051346     0.08500
H476        H  0.98162494  0.82234046  0.92455854     0.05200
C477        C  0.99566466  0.25644418  0.53295988    -0.20600
C478        C  0.02996549  0.22918798  0.57216121    -0.07100
C479        C  0.07445343  0.25831661  0.59533108     0.13700
C480        C  0.07530360  0.31443017  0.58926332    -0.20600
C481        C  0.03617715  0.34255115  0.55610478    -0.07100
C482        C  0.99759945  0.31232083  0.52491549     0.13700
C483        C  0.95786889  0.33763747  0.48303856    -0.24000
H484        H  0.96668831  0.23416550  0.50809596     0.15000
H485        H  0.10788099  0.33621269  0.61012082     0.15000
C486        C  0.12307968  0.23209281  0.62455190    -0.23900
H487        H  0.93239230  0.30722809  0.46157204     0.05300
H488        H  0.98101288  0.35986313  0.44988090     0.08500
H489        H  0.92900930  0.36506926  0.50485012     0.08500
H490        H  0.12369965  0.18808635  0.62009407     0.08500
H491        H  0.12318341  0.24240698  0.66985676     0.08500
H492        H  0.16184161  0.24683364  0.60509930     0.05200
C493        C  0.79219795  0.09859894  0.62590038    -0.20600
C494        C  0.77326161  0.06767623  0.58133534    -0.07100
C495        C  0.81155937  0.04226201  0.54565318     0.13700
C496        C  0.86832910  0.05081884  0.55368982    -0.20600
C497        C  0.88708672  0.08482300  0.59603226    -0.07100
C498        C  0.84855748  0.10831781  0.63323287     0.13700
C499        C  0.86625453  0.14518535  0.67962422    -0.24000
H500        H  0.76243518  0.11731040  0.65355109     0.15000
H501        H  0.89793120  0.03319088  0.52515229     0.15000
C502        C  0.79243454  0.00649794  0.49912479    -0.23900
H503        H  0.83076507  0.15816153  0.70568591     0.05300
H504        H  0.88550029  0.18189332  0.66174964     0.08500
H505        H  0.89611133  0.12447198  0.70785112     0.08500
H506        H  0.76625384  0.02980049  0.46895185     0.08500
H507        H  0.76813154  0.97279505  0.51723485     0.08500
H508        H  0.82769387  0.98928279  0.47554119     0.05200
C509        C  0.07688314  0.07823537  0.81202593    -0.20600
C510        C  0.03133400  0.05667243  0.84020681    -0.07100
C511        C  0.98346992  0.04392425  0.80935835     0.13700
C512        C  0.98124777  0.05626740  0.75138122    -0.20600
C513        C  0.02507984  0.08255874  0.72428963    -0.07100
C514        C  0.07466324  0.09081697  0.75442097     0.13700
C515        C  0.12644113  0.11142934  0.72705470    -0.24000
H516        H  0.11426636  0.08657637  0.83550006     0.15000
H517        H  0.94445552  0.04713336  0.72774205     0.15000
C518        C  0.93505208  0.01702667  0.83733579    -0.23900
H519        H  0.16098082  0.08302847  0.73601028     0.05300
H520        H  0.13689737  0.15131723  0.74412296     0.08500
H521        H  0.12264313  0.11477438  0.68082541     0.08500
H522        H  0.91743838  0.04339954  0.87002251     0.08500
H523        H  0.94860286  0.97844990  0.85721240     0.08500
H524        H  0.90183793  0.00830990  0.80662246     0.05200
C525        C  0.54857118  0.75470532  0.54730709    -0.20600
C526        C  0.58428264  0.73094899  0.58757479    -0.07100
C527        C  0.61497361  0.76632055  0.62251877     0.13700
C528        C  0.60836496  0.82228701  0.61619486    -0.20600
C529        C  0.57263880  0.84561151  0.57593353    -0.07100
C530        C  0.54218382  0.81069026  0.54099024     0.13700
C531        C  0.50251358  0.83124693  0.49637383    -0.24000
H532        H  0.52528848  0.73002225  0.51917034     0.15000
H533        H  0.63222757  0.84807911  0.64321425     0.15000
C534        C  0.65601710  0.74804476  0.66712344    -0.23900
H535        H  0.48206257  0.79815344  0.47375921     0.05300
H536        H  0.52490320  0.85556787  0.46432444     0.08500
H537        H  0.46945635  0.85557782  0.51603261     0.08500
H538        H  0.69701759  0.76538464  0.65733751     0.08500
H539        H  0.66190233  0.70425874  0.67128134     0.08500
H540        H  0.64250853  0.76277751  0.70880358     0.05200
C541        C  0.75106134  0.57995419  0.63011675    -0.20600
C542        C  0.71683887  0.57750238  0.58278546    -0.07100
C543        C  0.73979352  0.56616709  0.52984781     0.13700
C544        C  0.79705755  0.55897810  0.52528617    -0.20600
C545        C  0.83181288  0.56428677  0.57236951    -0.07100
C546        C  0.80821087  0.57320324  0.62586938     0.13700
C547        C  0.84264091  0.57549546  0.67874780    -0.24000
H548        H  0.73344504  0.59048223  0.67023692     0.15000
H549        H  0.81495704  0.55158556  0.48433583     0.15000
C550        C  0.70403612  0.56386307  0.47801621    -0.23900
H551        H  0.81662433  0.57868325  0.71701314     0.05300
H552        H  0.86974619  0.61115762  0.67734019     0.08500
H553        H  0.86802475  0.53838595  0.68319836     0.08500
H554        H  0.68323542  0.60320856  0.47067004     0.08500
H555        H  0.67238554  0.53232821  0.48381975     0.08500
H556        H  0.72844875  0.55437001  0.43990132     0.05200
C557        C  0.62957287  0.57027246  0.75057409    -0.20600
C558        C  0.58336594  0.56872788  0.71564871    -0.07100
C559        C  0.53218927  0.55288960  0.73825486     0.13700
C560        C  0.52773256  0.54306371  0.79663220    -0.20600
C561        C  0.57339477  0.54932292  0.83258659    -0.07100
C562        C  0.62567833  0.56051264  0.80854564     0.13700
C563        C  0.67781170  0.56283991  0.84322923    -0.24000
H564        H  0.66860298  0.58278544  0.73298964     0.15000
H565        H  0.48790241  0.53319066  0.81447492     0.15000
C566        C  0.48228227  0.54785002  0.70095745    -0.23900
H567        H  0.71506388  0.56637317  0.81630738     0.05300
H568        H  0.68229764  0.52553622  0.86911822     0.08500
H569        H  0.67711372  0.59839953  0.87070221     0.08500
H570        H  0.49057069  0.51753563  0.66821844     0.08500
H571        H  0.47269690  0.58708097  0.68018136     0.08500
H572        H  0.44546102  0.53491578  0.72522203     0.05200
loop_ 
_geom_bond_atom_site_label_1 
_geom_bond_atom_site_label_2 
_geom_bond_distance 
_geom_bond_site_symmetry_2 
_ccdc_geom_bond_type 
C1            C2   1.528       .  S
C1            C7   1.535       .  S
C1            C5   1.551       .  S
C1          C526   1.548       .  S
C2            H9   1.087       .  S
C2            C3   1.359       .  D
C3            C4   1.540       .  S
C3          C542   1.473       .  S
C4            C8   1.539       .  S
C4            C6   1.537       .  S
C4           H10   1.111       .  S
C5           H11   1.083       .  S
C5            C6   1.377       .  D
C6           C42   1.489       .  S
C7           H12   1.087       .  S
C7            C8   1.363       .  D
C8          C558   1.476       .  S
C13          C14   1.542       .  S
C13          C19   1.537   1_455  S
C13          C17   1.533       .  S
C13         C478   1.540       .  S
C14          H21   1.085       .  S
C14          C15   1.367       .  D
C15          C16   1.535   1_455  S
C15         C513   1.486       .  S
C16          C20   1.541       .  S
C16          C18   1.555   1_655  S
C16          H22   1.106       .  S
C17          H23   1.081       .  S
C17          C18   1.373       .  D
C18          C90   1.504       .  S
C19          H24   1.085       .  S
C19          C20   1.356       .  D
C20         C497   1.482       .  S
C25          C26   1.543   1_554  S
C25          C31   1.539       .  S
C25          C29   1.531       .  S
C25         C465   1.546       .  S
C26          H33   1.084       .  S
C26          C27   1.361       .  D
C27          C28   1.544       .  S
C27         C449   1.490       .  S
C28          C32   1.551   1_556  S
C28          C30   1.556   1_556  S
C28          H34   1.105       .  S
C29          H35   1.083       .  S
C29          C30   1.370       .  D
C30          C66   1.505       .  S
C31          H36   1.086       .  S
C31          C32   1.367       .  D
C32         C433   1.500       .  S
C37          C38   1.533       .  S
C37          C43   1.530       .  S
C37          C41   1.540       .  S
C37         C398   1.539       .  S
C38          H45   1.086       .  S
C38          C39   1.368       .  D
C39          C40   1.556       .  S
C39         C382   1.503       .  S
C40          C44   1.546       .  S
C40          C42   1.550       .  S
C40          H46   1.110       .  S
C41          H47   1.081       .  S
C41          C42   1.363       .  D
C43          H48   1.087       .  S
C43          C44   1.359       .  D
C44         C417   1.478       .  S
C49          C50   1.543       .  S
C49          C55   1.543       .  S
C49          C53   1.539       .  S
C49         C353   1.548       .  S
C50          H57   1.086       .  S
C50          C51   1.366       .  D
C51          C52   1.535   1_565  S
C51         C334   1.488   1_565  S
C52          C56   1.537   1_545  S
C52          C54   1.558       .  S
C52          H58   1.106       .  S
C53          H59   1.083       .  S
C53          C54   1.373   1_565  D
C54          C78   1.510       .  S
C55          H60   1.082       .  S
C55          C56   1.360       .  D
C56         C369   1.485   1_565  S
C61          C62   1.551   1_455  S
C61          C67   1.532       .  S
C61          C65   1.535       .  S
C61         C318   1.544       .  S
C62          H69   1.084       .  S
C62          C63   1.364       .  D
C63          C64   1.538       .  S
C63         C302   1.498       .  S
C64          C68   1.539   1_655  S
C64          C66   1.555   1_655  S
C64          H70   1.105       .  S
C65          H71   1.082       .  S
C65          C66   1.373       .  D
C67          H72   1.086       .  S
C67          C68   1.360       .  D
C68         C289   1.480       .  S
C73          C74   1.544       .  S
C73          C79   1.534   1_554  S
C73          C77   1.536       .  S
C73         C238   1.547       .  S
C74          H81   1.072       .  S
C74          C75   1.363       .  D
C75          C76   1.546   1_554  S
C75         C273   1.495       .  S
C76          C80   1.539       .  S
C76          C78   1.561   1_556  S
C76          H82   1.106       .  S
C77          H83   1.081       .  S
C77          C78   1.374       .  D
C79          H84   1.087       .  S
C79          C80   1.359       .  D
C80         C254   1.481       .  S
C85          C86   1.546       .  S
C85          C91   1.534       .  S
C85          C89   1.537       .  S
C85         C206   1.550       .  S
C86          H93   1.081       .  S
C86          C87   1.364   1_565  D
C87          C88   1.543       .  S
C87         C190   1.496       .  S
C88          C92   1.539       .  S
C88          C90   1.556       .  S
C88          H94   1.103       .  S
C89          H95   1.084       .  S
C89          C90   1.374   1_565  D
C91          H96   1.087       .  S
C91          C92   1.362   1_565  D
C92         C225   1.486       .  S
O97         C113   1.278       .  A
O97        Zn103   2.038   1_645  S
C98         O114   1.276       .  A
C98         O111   1.274       .  A
C98         C462   1.477       .  S
O99         C112   1.277       .  A
O99        Cd106   2.079       .  S
O100        C118   1.275       .  A
O100       Cd109   2.083       .  S
O101        C115   1.273   1_655  A
O101       Cd105   2.065   1_556  S
O102        C113   1.272       .  A
O102       Cd105   2.065       .  S
Zn103       O114   2.046       .  S
Zn103       O116   2.011   1_565  S
Zn103       O108   1.950   1_565  S
O104        C115   1.275       .  A
O104       Cd109   2.076   1_556  S
Cd105       O107   2.065   1_655  S
Cd105       O108   1.999   1_655  S
Cd106       O110   2.084       .  S
Cd106       O119   2.079       .  S
Cd106       O108   2.007       .  S
O107        C117   1.273       .  A
O108       Cd109   2.000       .  S
Cd109       O111   2.065   1_545  S
O110        C117   1.277       .  A
C112        O116   1.274       .  A
C112        C222   1.485       .  S
C113        C366   1.500       .  S
C115        C510   1.473       .  S
C117        C321   1.499       .  S
C118        O119   1.276       .  A
C118        C270   1.477       .  S
O120        C136   1.281       .  A
O120       Zn126   2.084       .  S
C121        O137   1.280       .  A
C121        O134   1.273       .  A
C121        C257   1.497       .  S
O122        C135   1.281       .  A
O122       Cd129   2.116       .  S
O123        C141   1.274       .  A
O123       Cd132   2.065       .  S
O124        C138   1.271       .  A
O124       Cd128   2.068   1_565  S
O125        C136   1.271       .  A
O125       Cd128   2.049       .  S
Zn126       O137   2.046       .  S
Zn126       O139   2.064       .  S
Zn126       O131   1.972       .  S
O127        C138   1.276       .  A
O127       Cd132   2.092   1_565  S
Cd128       O130   2.056       .  S
Cd128       O131   1.985       .  S
Cd129       O133   2.106       .  S
Cd129       O142   2.090       .  S
Cd129       O131   2.019       .  S
O130        C140   1.274       .  A
O131       Cd132   2.014       .  S
Cd132       O134   2.063       .  S
O133        C140   1.279       .  A
C135        O139   1.282       .  A
C135        C385   1.510       .  S
C136        C193   1.508       .  S
C138        C529   1.506       .  S
C140        C337   1.493       .  S
C141        O142   1.278       .  A
C141        C494   1.473       .  S
O143        C159   1.273       .  A
O143       Zn149   2.031       .  S
C144        O160   1.271       .  A
C144        O157   1.276       .  A
C144        C561   1.485       .  S
O145        C158   1.279       .  A
O145       Cd152   2.094       .  S
O146        C164   1.278       .  A
O146       Cd155   2.086       .  S
O147        C161   1.273       .  A
O147       Cd151   2.068       .  S
O148        C159   1.274       .  A
O148       Cd151   2.068       .  S
Zn149       O160   1.994   1_554  S
Zn149       O162   2.011       .  S
Zn149       O154   1.941       .  S
O150        C161   1.276       .  A
O150       Cd155   2.074       .  S
Cd151       O153   2.061       .  S
Cd151       O154   2.001       .  S
Cd152       O156   2.102       .  S
Cd152       O165   2.106       .  S
Cd152       O154   2.011       .  S
O153        C163   1.273       .  A
O154       Cd155   2.009       .  S
Cd155       O157   2.086   1_554  S
O156        C163   1.280       .  A
C158        O162   1.273       .  A
C158        C350   1.497       .  S
C159        C305   1.479       .  S
C161        C241   1.472       .  S
C163        C414   1.483       .  S
C164        O165   1.279       .  A
C164        C430   1.503       .  S
O166        C182   1.275       .  A
O166       Zn172   2.036       .  S
C167        O183   1.276       .  A
C167        O180   1.272       .  A
C167        C545   1.479       .  S
O168        C181   1.272       .  A
O168       Cd175   2.065       .  S
O169        C187   1.271       .  A
O169       Cd178   2.061   1_455  S
O170        C184   1.274       .  A
O170       Cd174   2.080       .  S
O171        C182   1.276       .  A
O171       Cd174   2.078       .  S
Zn172       O183   2.024   1_455  S
Zn172       O185   2.029       .  S
Zn172       O177   1.942       .  S
O173        C184   1.273   1_655  A
O173       Cd178   2.046       .  S
Cd174       O176   2.071       .  S
Cd174       O177   2.008       .  S
Cd175       O179   2.047       .  S
Cd175       O188   2.068       .  S
Cd175       O177   2.000       .  S
O176        C186   1.274       .  A
O177       Cd178   1.988   1_455  S
Cd178       O180   2.054       .  S
O179        C186   1.271       .  A
C181        O185   1.275       .  A
C181        C446   1.471       .  S
C182        C209   1.478       .  S
C184        C286   1.492       .  S
C186        C401   1.462       .  S
C187        O188   1.274       .  A
C187        C481   1.495       .  S
C189        C190   1.399   1_565  A
C189        C194   1.401       .  A
C189        H196   1.084       .  S
C190        C191   1.411       .  A
C191        C198   1.503       .  S
C191        C192   1.415       .  A
C192        C193   1.414       .  A
C192        H197   1.084       .  S
C193        C194   1.428   1_545  A
C194        C195   1.512       .  S
C195        H199   1.111       .  S
C195        H200   1.110       .  S
C195        H201   1.110       .  S
C198        H202   1.109       .  S
C198        H203   1.108       .  S
C198        H204   1.111       .  S
C205        C206   1.414       .  A
C205        C210   1.402       .  A
C205        H212   1.075       .  S
C206        C207   1.433       .  A
C207        C214   1.511   1_455  S
C207        C208   1.410       .  A
C208        C209   1.399       .  A
C208        H213   1.085   1_455  S
C209        C210   1.406       .  A
C210        C211   1.509       .  S
C211        H215   1.111       .  S
C211        H216   1.110       .  S
C211        H217   1.110       .  S
C214        H218   1.111       .  S
C214        H219   1.103       .  S
C214        H220   1.111       .  S
C221        C222   1.406       .  A
C221        C226   1.406       .  A
C221        H228   1.083       .  S
C222        C223   1.418       .  A
C223        C230   1.509   1_455  S
C223        C224   1.402       .  A
C224        C225   1.402       .  A
C224        H229   1.085       .  S
C225        C226   1.413       .  A
C226        C227   1.504       .  S
C227        H231   1.111       .  S
C227        H232   1.107       .  S
C227        H233   1.108       .  S
C230        H234   1.109   1_545  S
C230        H235   1.110       .  S
C230        H236   1.111       .  S
C237        C238   1.416       .  A
C237        C242   1.400       .  A
C237        H244   1.063       .  S
C238        C239   1.430       .  A
C239        C246   1.514       .  S
C239        C240   1.409       .  A
C240        C241   1.399       .  A
C240        H245   1.084       .  S
C241        C242   1.404       .  A
C242        C243   1.510       .  S
C243        H247   1.110       .  S
C243        H248   1.110       .  S
C243        H249   1.111       .  S
C246        H250   1.105   1_554  S
C246        H251   1.107       .  S
C246        H252   1.111   1_554  S
C253        C254   1.398       .  A
C253        C258   1.407       .  A
C253        H260   1.085       .  S
C254        C255   1.410       .  A
C255        C262   1.505       .  S
C255        C256   1.404       .  A
C256        C257   1.408       .  A
C256        H261   1.084       .  S
C257        C258   1.426       .  A
C258        C259   1.509       .  S
C259        H263   1.111       .  S
C259        H264   1.110       .  S
C259        H265   1.110   1_545  S
C262        H266   1.110       .  S
C262        H267   1.109       .  S
C262        H268   1.111       .  S
C269        C270   1.405       .  A
C269        C274   1.413       .  A
C269        H276   1.084   1_545  S
C270        C271   1.409       .  A
C271        C278   1.508   1_554  S
C271        C272   1.400   1_554  A
C272        C273   1.407   1_556  A
C272        H277   1.084       .  S
C273        C274   1.413       .  A
C274        C275   1.501   1_545  S
C275        H279   1.111       .  S
C275        H280   1.109   1_565  S
C275        H281   1.108       .  S
C278        H282   1.110   1_556  S
C278        H283   1.110       .  S
C278        H284   1.111       .  S
C285        C286   1.408   1_655  A
C285        C290   1.394       .  A
C285        H292   1.084       .  S
C286        C287   1.422       .  A
C287        C294   1.507       .  S
C287        C288   1.408       .  A
C288        C289   1.401       .  A
C288        H293   1.085       .  S
C289        C290   1.414   1_455  A
C290        C291   1.512       .  S
C291        H295   1.110       .  S
C291        H296   1.106       .  S
C291        H297   1.111       .  S
C294        H298   1.110       .  S
C294        H299   1.110       .  S
C294        H300   1.111       .  S
C301        C302   1.408       .  A
C301        C306   1.408       .  A
C301        H308   1.084   1_554  S
C302        C303   1.422       .  A
C303        C310   1.500       .  S
C303        C304   1.402       .  A
C304        C305   1.397       .  A
C304        H309   1.084       .  S
C305        C306   1.412       .  A
C306        C307   1.505   1_554  S
C307        H311   1.111       .  S
C307        H312   1.110       .  S
C307        H313   1.110       .  S
C310        H314   1.110       .  S
C310        H315   1.090       .  S
C310        H316   1.109       .  S
C317        C318   1.409   1_655  A
C317        C322   1.405       .  A
C317        H324   1.078   1_554  S
C318        C319   1.423       .  A
C319        C326   1.510       .  S
C319        C320   1.405       .  A
C320        C321   1.407       .  A
C320        H325   1.084       .  S
C321        C322   1.421   1_455  A
C322        C323   1.510   1_554  S
C323        H327   1.111       .  S
C323        H328   1.110   1_556  S
C323        H329   1.110       .  S
C326        H330   1.110       .  S
C326        H331   1.105       .  S
C326        H332   1.111       .  S
C333        C334   1.405       .  A
C333        C338   1.410       .  A
C333        H340   1.085       .  S
C334        C335   1.413       .  A
C335        C342   1.507   1_545  S
C335        C336   1.401       .  A
C336        C337   1.407       .  A
C336        H341   1.085       .  S
C337        C338   1.419       .  A
C338        C339   1.507       .  S
C339        H343   1.111       .  S
C339        H344   1.111       .  S
C339        H345   1.109       .  S
C342        H346   1.110       .  S
C342        H347   1.103       .  S
C342        H348   1.111   1_565  S
C349        C350   1.405       .  A
C349        C354   1.406       .  A
C349        H356   1.084       .  S
C350        C351   1.420       .  A
C351        C358   1.511   1_554  S
C351        C352   1.406       .  A
C352        C353   1.412       .  A
C352        H357   1.077       .  S
C353        C354   1.424       .  A
C354        C355   1.507       .  S
C355        H359   1.110       .  S
C355        H360   1.101       .  S
C355        H361   1.110       .  S
C358        H362   1.110       .  S
C358        H363   1.110   1_556  S
C358        H364   1.111       .  S
C365        C366   1.407   1_565  A
C365        C370   1.400       .  A
C365        H372   1.085       .  S
C366        C367   1.427       .  A
C367        C374   1.508       .  S
C367        C368   1.409       .  A
C368        C369   1.398       .  A
C368        H373   1.087       .  S
C369        C370   1.415   1_545  A
C370        C371   1.509       .  S
C371        H375   1.111       .  S
C371        H376   1.110       .  S
C371        H377   1.106       .  S
C374        H378   1.110   1_554  S
C374        H379   1.110       .  S
C374        H380   1.111       .  S
C381        C382   1.404       .  A
C381        C386   1.415       .  A
C381        H388   1.083       .  S
C382        C383   1.417       .  A
C383        C390   1.510       .  S
C383        C384   1.411       .  A
C384        C385   1.409       .  A
C384        H389   1.084       .  S
C385        C386   1.423       .  A
C386        C387   1.506       .  S
C387        H391   1.111       .  S
C387        H392   1.110       .  S
C387        H393   1.110       .  S
C390        H394   1.107       .  S
C390        H395   1.111       .  S
C390        H396   1.111       .  S
C397        C398   1.415       .  A
C397        C402   1.399       .  A
C397        H404   1.077       .  S
C398        C399   1.431       .  A
C399        C406   1.512       .  S
C399        C400   1.403       .  A
C400        C401   1.395       .  A
C400        H405   1.086       .  S
C401        C402   1.402       .  A
C402        C403   1.509       .  S
C403        H407   1.111       .  S
C403        H408   1.110       .  S
C403        H409   1.111       .  S
C406        H410   1.111       .  S
C406        H411   1.103       .  S
C406        H412   1.111       .  S
C413        C414   1.404       .  A
C413        C418   1.406       .  A
C413        H420   1.083       .  S
C414        C415   1.418       .  A
C415        C422   1.509       .  S
C415        C416   1.405       .  A
C416        C417   1.400       .  A
C416        H421   1.083       .  S
C417        C418   1.412       .  A
C418        C419   1.506       .  S
C419        H423   1.110       .  S
C419        H424   1.109       .  S
C419        H425   1.110       .  S
C422        H426   1.109       .  S
C422        H427   1.111       .  S
C422        H428   1.111       .  S
C429        C430   1.409   1_556  A
C429        C434   1.410       .  A
C429        H436   1.083       .  S
C430        C431   1.420       .  A
C431        C438   1.507       .  S
C431        C432   1.412       .  A
C432        C433   1.406       .  A
C432        H437   1.085       .  S
C433        C434   1.414   1_554  A
C434        C435   1.504       .  S
C435        H439   1.111       .  S
C435        H440   1.107       .  S
C435        H441   1.108       .  S
C438        H442   1.109       .  S
C438        H443   1.110       .  S
C438        H444   1.111       .  S
C445        C446   1.401       .  A
C445        C450   1.408       .  A
C445        H452   1.084       .  S
C446        C447   1.409       .  A
C447        C454   1.507       .  S
C447        C448   1.401       .  A
C448        C449   1.405       .  A
C448        H453   1.084       .  S
C449        C450   1.416       .  A
C450        C451   1.503       .  S
C451        H455   1.111   1_455  S
C451        H456   1.111   1_455  S
C451        H457   1.104       .  S
C454        H458   1.110       .  S
C454        H459   1.110       .  S
C454        H460   1.111       .  S
C461        C462   1.400       .  A
C461        C466   1.410       .  A
C461        H468   1.084       .  S
C462        C463   1.406       .  A
C463        C470   1.509   1_454  S
C463        C464   1.401   1_554  A
C464        C465   1.414   1_556  A
C464        H469   1.079       .  S
C465        C466   1.429       .  A
C466        C467   1.510       .  S
C467        H471   1.111       .  S
C467        H472   1.110       .  S
C467        H473   1.104       .  S
C470        H474   1.109   1_655  S
C470        H475   1.111       .  S
C470        H476   1.111       .  S
C477        C478   1.410   1_655  A
C477        C482   1.403       .  A
C477        H484   1.080       .  S
C478        C479   1.420       .  A
C479        C486   1.507       .  S
C479        C480   1.403       .  A
C480        C481   1.407       .  A
C480        H485   1.085       .  S
C481        C482   1.420   1_455  A
C482        C483   1.511       .  S
C483        H487   1.111       .  S
C483        H488   1.111       .  S
C483        H489   1.110       .  S
C486        H490   1.103       .  S
C486        H491   1.110       .  S
C486        H492   1.111       .  S
C493        C494   1.398       .  A
C493        C498   1.401       .  A
C493        H500   1.085       .  S
C494        C495   1.412       .  A
C495        C502   1.505       .  S
C495        C496   1.408       .  A
C496        C497   1.403       .  A
C496        H501   1.084       .  S
C497        C498   1.418       .  A
C498        C499   1.510       .  S
C499        H503   1.111       .  S
C499        H504   1.108       .  S
C499        H505   1.105       .  S
C502        H506   1.110       .  S
C502        H507   1.111   1_545  S
C502        H508   1.111   1_545  S
C509        C510   1.399       .  A
C509        C514   1.399       .  A
C509        H516   1.087       .  S
C510        C511   1.413   1_455  A
C511        C518   1.507       .  S
C511        C512   1.406       .  A
C512        C513   1.404   1_655  A
C512        H517   1.081       .  S
C513        C514   1.416       .  A
C514        C515   1.505       .  S
C515        H519   1.111       .  S
C515        H520   1.110       .  S
C515        H521   1.103       .  S
C518        H522   1.110       .  S
C518        H523   1.111   1_545  S
C518        H524   1.111       .  S
C525        C526   1.409       .  A
C525        C530   1.407       .  A
C525        H532   1.077       .  S
C526        C527   1.432       .  A
C527        C534   1.514       .  S
C527        C528   1.408       .  A
C528        C529   1.405       .  A
C528        H533   1.085       .  S
C529        C530   1.422       .  A
C530        C531   1.510       .  S
C531        H535   1.111       .  S
C531        H536   1.110       .  S
C531        H537   1.110       .  S
C534        H538   1.111       .  S
C534        H539   1.102       .  S
C534        H540   1.111       .  S
C541        C542   1.398       .  A
C541        C546   1.400       .  A
C541        H548   1.081       .  S
C542        C543   1.408       .  A
C543        C550   1.506       .  S
C543        C544   1.404       .  A
C544        C545   1.408       .  A
C544        H549   1.084       .  S
C545        C546   1.415       .  A
C546        C547   1.509       .  S
C547        H551   1.111       .  S
C547        H552   1.109       .  S
C547        H553   1.110       .  S
C550        H554   1.110       .  S
C550        H555   1.109       .  S
C550        H556   1.111       .  S
C557        C558   1.394       .  A
C557        C562   1.397       .  A
C557        H564   1.081       .  S
C558        C559   1.410       .  A
C559        C566   1.506       .  S
C559        C560   1.408       .  A
C560        C561   1.408       .  A
C560        H565   1.084       .  S
C561        C562   1.420       .  A
C562        C563   1.510       .  S
C563        H567   1.111       .  S
C563        H568   1.110       .  S
C563        H569   1.109       .  S
C566        H570   1.111       .  S
C566        H571   1.110       .  S
C566        H572   1.111       .  S
