geometry optimzed in LAMMPS
_audit_creation_date              2020-11-30 
_audit_creation_method            'lammps2cif' 
_symmetry_space_group_name_H-M    'P1' 
_symmetry_Int_Tables_number       1 
_symmetry_cell_setting            triclinic 
loop_ 
_symmetry_equiv_pos_as_xyz 
  x,y,z 
_cell_length_a                    57.8858288 
_cell_length_b                    57.981150363912484 
_cell_length_c                    42.132757308885225 
_cell_angle_alpha                 90.00507748037212 
_cell_angle_beta                  90.05793683007359 
_cell_angle_gamma                 90.04578712040728 
loop_ 
_atom_site_label 
_atom_site_type_symbol 
_atom_site_fract_x 
_atom_site_fract_y 
_atom_site_fract_z 
_atom_site_charge 
C1          C  0.51834682  0.23755120  0.23594699     0.81100
N2          N  0.50627115  0.22545634  0.25791171    -0.77200
C3          C  0.49538514  0.23656480  0.28204518     0.83500
N4          N  0.49595538  0.26006473  0.28336443    -0.77200
C5          C  0.50751425  0.27236928  0.26082210     0.83600
N6          N  0.51880176  0.26083916  0.23748950    -0.78900
O7          O  0.53626212  0.49245707  0.21803375    -0.72100
O8          O  0.46698266  0.48886719  0.22526823    -0.73100
O9          O  0.49958548  0.52499760  0.21807323    -0.61700
O10         O  0.50350785  0.45641277  0.22477940    -0.70100
O11         O  0.50550924  0.45866844  0.27717165    -0.69600
O12         O  0.50381313  0.52763858  0.27035533    -0.60900
O13         O  0.46960683  0.49279799  0.27751608    -0.73400
O14         O  0.53918564  0.49415016  0.27035329    -0.72200
Cu15       Cu  0.50146748  0.49057729  0.21976277     1.04600
Cu16       Cu  0.50457793  0.49339005  0.27571603     1.04300
C17         C  0.54876770  0.49387102  0.24302797     0.94100
C18         C  0.45732390  0.49053151  0.25245021     0.93300
C19         C  0.50151299  0.53714024  0.24318384     0.85400
C20         C  0.50512155  0.44657175  0.25180553     0.91700
C21         C  0.75760434  0.47996049  0.26309680     0.81100
N22         N  0.77028247  0.49287595  0.24278463    -0.77200
C23         C  0.75993480  0.50512864  0.21942729     0.83500
N24         N  0.73650711  0.50478955  0.21670659    -0.77200
C25         C  0.72345715  0.49171324  0.23677142     0.83600
N26         N  0.73422998  0.47938750  0.26000791    -0.78900
C27         C  0.48444861  0.74585472  0.23269963     0.81100
N28         N  0.49576872  0.75680094  0.25661796    -0.77200
C29         C  0.50704085  0.74443888  0.27922305     0.83500
N30         N  0.50738249  0.72105384  0.27742276    -0.77200
C31         C  0.49597521  0.70996056  0.25367972     0.83600
N32         N  0.48467092  0.72248978  0.23131261    -0.78900
C33         C  0.24589520  0.49648312  0.27254487     0.81100
N34         N  0.26942330  0.49709048  0.27360415    -0.77200
C35         C  0.28219879  0.48840627  0.24910861     0.83500
N36         N  0.27113006  0.47876028  0.22374405    -0.77200
C37         C  0.24765057  0.47785345  0.22278333     0.83600
N38         N  0.23528203  0.48676958  0.24716128    -0.78900
C39         C  0.49463050  0.74706404  0.77699870     0.81100
N40         N  0.49478906  0.72368833  0.77844117    -0.77200
C41         C  0.50549479  0.71091977  0.75574657     0.83500
N42         N  0.51621993  0.72185917  0.73122393    -0.77200
C43         C  0.51619170  0.74532299  0.72947269     0.83600
N44         N  0.50543646  0.75768653  0.75252254    -0.78900
O45         O  0.49738149  0.52606802  0.73814029    -0.72100
O46         O  0.49527611  0.45728836  0.73238630    -0.73100
O47         O  0.46196280  0.49272430  0.73815673    -0.61700
O48         O  0.53107785  0.49066459  0.73285049    -0.70100
O49         O  0.53276802  0.48920565  0.78526166    -0.69600
O50         O  0.46359363  0.49095454  0.79059501    -0.60900
O51         O  0.49722663  0.45542923  0.78477118    -0.73400
O52         O  0.49890715  0.52488911  0.79059277    -0.72200
Cu53       Cu  0.49637164  0.49179050  0.73362000     1.04600
Cu54       Cu  0.49823343  0.49002227  0.78965619     1.04300
C55         C  0.49811026  0.53651843  0.76483258     0.94100
C56         C  0.49592287  0.44533630  0.75778357     0.93300
C57         C  0.45177309  0.49223082  0.76506317     0.85400
C58         C  0.54297130  0.48948351  0.75835621     0.91700
C59         C  0.24190544  0.48085585  0.77351447     0.81100
N60         N  0.26504238  0.48364473  0.77679181    -0.77200
C61         C  0.27725698  0.49746524  0.75691443     0.83500
N62         N  0.26582234  0.50890912  0.73347994    -0.77200
C63         C  0.24257459  0.50632347  0.72997968     0.83600
N64         N  0.23077057  0.49215468  0.74986009    -0.78900
C65         C  0.47964070  0.23533760  0.73792779     0.81100
N66         N  0.49133535  0.22398917  0.76116743    -0.77200
C67         C  0.50402891  0.23581212  0.78300595     0.83500
N68         N  0.50542059  0.25916222  0.78103526    -0.77200
C69         C  0.49409309  0.27073390  0.75775004     0.83600
N70         N  0.48117018  0.25871546  0.73649858    -0.78900
C71         C  0.75344093  0.50296548  0.77395065     0.81100
N72         N  0.76439761  0.49280615  0.74920345    -0.77200
C73         C  0.75237850  0.48255115  0.72541801     0.83500
N74         N  0.72891549  0.48263044  0.72658106    -0.77200
C75         C  0.71756847  0.49301050  0.75104107     0.83600
N76         N  0.72997065  0.50305202  0.77478770    -0.78900
C77         C  0.98588037  0.73694444  0.75994590     0.81100
N78         N  0.99972148  0.72683669  0.73806137    -0.77200
C79         C  0.01414629  0.73981192  0.71999190     0.83500
N80         N  0.01475109  0.76309050  0.72410506    -0.77200
C81         C  0.00094514  0.77338810  0.74619672     0.83600
N82         N  0.98649770  0.76012246  0.76379040    -0.78900
O83         O  0.99833490  0.95726362  0.73271711    -0.72100
O84         O  0.99803685  0.02615805  0.72819118    -0.73100
O85         O  0.03304638  0.99196145  0.73068554    -0.61700
O86         O  0.96344078  0.99087125  0.73055330    -0.70100
O87         O  0.96360048  0.99340087  0.78311653    -0.69600
O88         O  0.03325060  0.99277882  0.78322573    -0.60900
O89         O  0.99888138  0.02777330  0.78064679    -0.73400
O90         O  0.99818929  0.95841672  0.78534805    -0.72200
Cu91       Cu  0.99822557  0.99152283  0.72874471     1.04600
Cu92       Cu  0.99846314  0.99317821  0.78493523     1.04300
C93         C  0.99804808  0.94692136  0.75946511     0.94100
C94         C  0.99871837  0.03800347  0.75372904     0.93300
C95         C  0.04420860  0.99237634  0.75691625     0.85400
C96         C  0.95256180  0.99179084  0.75690611     0.91700
C97         C  0.25465711  0.98095886  0.77433686     0.81100
N98         N  0.23115845  0.98030604  0.77432308    -0.77200
C99         C  0.21898843  0.99075750  0.75078993     0.83500
N100        N  0.23039145  0.00187074  0.72715747    -0.77200
C101        C  0.25386088  0.00289565  0.72689443     0.83600
N102        N  0.26583839  0.99232403  0.75064981    -0.78900
C103        C  0.01345132  0.24777228  0.76603167     0.81100
N104        N  0.00086416  0.25916749  0.74377480    -0.77200
C105        C  0.98751221  0.24742137  0.72269731     0.83500
N106        N  0.98665886  0.22394676  0.72414589    -0.77200
C107        C  0.99934967  0.21235353  0.74629724     0.83600
N108        N  0.01271223  0.22442481  0.76699359    -0.78900
C109        C  0.74248041  0.97794321  0.73412821     0.81100
N110        N  0.76592818  0.97683817  0.73563575    -0.77200
C111        C  0.77766125  0.98694949  0.75997436     0.83500
N112        N  0.76559501  0.99811561  0.78310104    -0.77200
C113        C  0.74207651  0.99922905  0.78189079     0.83600
N114        N  0.73074291  0.98924515  0.75718922    -0.78900
C115        C  0.97792392  0.24682472  0.26721486     0.81100
N116        N  0.97645611  0.22345981  0.26607014    -0.77200
C117        C  0.98904941  0.21121560  0.24465262     0.83500
N118        N  0.00304574  0.22286335  0.22413036    -0.77200
C119        C  0.00480048  0.24627859  0.22516814     0.83600
N120        N  0.99227657  0.25809218  0.24702593    -0.78900
O121        O  0.96369158  0.98816583  0.22266904    -0.72100
O122        O  0.03316270  0.99326087  0.21948107    -0.73100
O123        O  0.00119799  0.95594989  0.22085179    -0.61700
O124        O  0.99560278  0.02505220  0.22047692    -0.70100
O125        O  0.99776248  0.02556414  0.27295943    -0.69600
O126        O  0.00212907  0.95597824  0.27343105    -0.60900
O127        O  0.03467453  0.99313308  0.27196692    -0.73400
O128        O  0.96560861  0.98886531  0.27510469    -0.72200
Cu129      Cu  0.99840441  0.99053300  0.21905475     1.04600
Cu130      Cu  0.00011519  0.99082853  0.27517211     1.04300
C131        C  0.95359419  0.98840241  0.24965684     0.94100
C132        C  0.04494229  0.99415556  0.24519467     0.93300
C133        C  0.00240473  0.94497092  0.24709089     0.85400
C134        C  0.99560104  0.03628082  0.24656068     0.91700
C135        C  0.74601372  0.01039673  0.23380997     0.81100
N136        N  0.76933296  0.00879426  0.23551603    -0.77200
C137        C  0.77967020  0.99663498  0.25908532     0.83500
N138        N  0.76633333  0.98600046  0.28118985    -0.77200
C139        C  0.74288356  0.98730642  0.27976664     0.83600
N140        N  0.73280807  0.99976957  0.25614744    -0.78900
C141        C  0.01147208  0.73381800  0.26973207     0.81100
N142        N  0.99847085  0.72312224  0.24727053    -0.77200
C143        C  0.98769408  0.73550454  0.22431202     0.83500
N144        N  0.98991296  0.75882368  0.22393499    -0.77200
C145        C  0.00244574  0.76996510  0.24654307     0.83600
N146        N  0.01319497  0.75724840  0.26927034    -0.78900
C147        C  0.25542976  0.98601857  0.21857558     0.81100
N148        N  0.26644392  0.99784297  0.24199409    -0.77200
C149        C  0.25441898  0.00959736  0.26449867     0.83500
N150        N  0.23094347  0.00927789  0.26329122    -0.77200
C151        C  0.21958671  0.99721557  0.24035967     0.83600
N152        N  0.23194574  0.98566427  0.21800917    -0.78900
N153        N  0.12236837  0.36669956  0.04884627    -0.35800
N154        N  0.09679484  0.34118323  0.00059003    -0.56300
N155        N  0.12192542  0.36594813  0.95094511    -0.35700
N156        N  0.14971832  0.38901781  0.99911371    -0.56300
C157        C  0.11140653  0.35110616  0.06750992     0.27800
C158        C  0.13891521  0.37694527  0.06670257     0.27800
C159        C  0.11139805  0.34920172  0.93384826     0.27800
C160        C  0.13960280  0.37410060  0.93312822     0.27800
C161        C  0.08479263  0.33459023  0.02659767     0.36500
C162        C  0.08412194  0.33479023  0.97507294     0.36500
C163        C  0.15754489  0.40097281  0.02445834     0.36500
C164        C  0.15777600  0.39999470  0.97307946     0.36500
C165        C  0.12080415  0.35185072  0.09779251    -0.21000
C166        C  0.13813286  0.36811713  0.09728258    -0.21000
C167        C  0.12250291  0.34676478  0.90485663    -0.21000
C168        C  0.14016260  0.36262225  0.90430063    -0.21000
C169        C  0.06449641  0.32371731  0.01751966    -0.22100
C170        C  0.06396343  0.32404719  0.98492583    -0.22100
C171        C  0.17091664  0.41945711  0.01445135    -0.22100
C172        C  0.17103672  0.41884944  0.98188614    -0.22100
C173        C  0.09253713  0.33693828  0.05835062    -0.17400
C174        C  0.15418266  0.39458906  0.05652390    -0.17400
C175        C  0.15453935  0.39237812  0.94155644    -0.17400
C176        C  0.09141903  0.33678589  0.94309530    -0.17400
H177        H  0.11562854  0.34184399  0.11826929     0.15500
H178        H  0.14887765  0.37293787  0.11725245     0.15500
H179        H  0.11823053  0.33489480  0.88590995     0.15500
H180        H  0.15209641  0.36534981  0.88489785     0.15500
H181        H  0.05145915  0.31621342  0.03274834     0.13800
H182        H  0.05045138  0.31682639  0.97018645     0.13800
H183        H  0.17989087  0.43192533  0.02908987     0.13800
H184        H  0.18011433  0.43072932  0.96648641     0.13800
H185        H  0.11824252  0.37080924  0.02581354     0.27000
H186        H  0.11650604  0.37234112  0.97255881     0.27000
N187        N  0.63132067  0.12482433  0.05265405    -0.35800
N188        N  0.60559578  0.14917660  0.00344842    -0.56300
N189        N  0.63138660  0.12449557  0.95521268    -0.35700
N190        N  0.65957540  0.10257329  0.00415073    -0.56300
C191        C  0.62068081  0.14138697  0.06979819     0.27800
C192        C  0.64922212  0.11695703  0.07014498     0.27800
C193        C  0.62029349  0.14010349  0.93699308     0.27800
C194        C  0.64809962  0.11490876  0.93733133     0.27800
C195        C  0.59294534  0.15526744  0.02897735     0.36500
C196        C  0.59313575  0.15527957  0.97768533     0.36500
C197        C  0.66724571  0.09116491  0.03006400     0.36500
C198        C  0.66656099  0.09027522  0.97866397     0.36500
C199        C  0.63188309  0.14400940  0.09868449    -0.21000
C200        C  0.64989591  0.12856385  0.09891915    -0.21000
C201        C  0.63005713  0.14039505  0.90693831    -0.21000
C202        C  0.64759956  0.12443383  0.90713298    -0.21000
C203        C  0.57242733  0.16546226  0.01939978    -0.22100
C204        C  0.57262895  0.16561563  0.98685919    -0.22100
C205        C  0.67953760  0.07174670  0.02102164    -0.22100
C206        C  0.67909171  0.07117333  0.98840624    -0.22100
C207        C  0.60052675  0.15346405  0.06071468    -0.17400
C208        C  0.66414127  0.09867669  0.06167481    -0.17400
C209        C  0.66257450  0.09657909  0.94671318    -0.17400
C210        C  0.60064463  0.15291410  0.94603692    -0.17400
H211        H  0.62744949  0.15574079  0.11770755     0.15500
H212        H  0.66202558  0.12604769  0.11817752     0.15500
H213        H  0.62482061  0.15070230  0.88676415     0.15500
H214        H  0.65851457  0.12009388  0.88716514     0.15500
H215        H  0.55887702  0.17239137  0.03428204     0.13800
H216        H  0.55927949  0.17267115  0.97171168     0.13800
H217        H  0.68793937  0.05930849  0.03630741     0.13800
H218        H  0.68715391  0.05824608  0.97356738     0.13800
H219        H  0.62573029  0.11816532  0.03079409     0.27000
H220        H  0.62673822  0.11935713  0.97822481     0.27000
N221        N  0.87861396  0.62134913  0.04104786    -0.35800
N222        N  0.85290385  0.59390517  0.99583369    -0.56300
N223        N  0.87665220  0.61738980  0.94402259    -0.35700
N224        N  0.89977864  0.64735382  0.98930386    -0.56300
C225        C  0.86253938  0.61176377  0.06026897     0.27800
C226        C  0.88803294  0.63927761  0.05693553     0.27800
C227        C  0.85943539  0.60639440  0.92851720     0.27800
C228        C  0.88384786  0.63476371  0.92506873     0.27800
C229        C  0.84756073  0.58238450  0.02266517     0.36500
C230        C  0.84701831  0.57997171  0.97151140     0.36500
C231        C  0.91264085  0.65520213  0.01379231     0.36500
C232        C  0.91097848  0.65357350  0.96251760     0.36500
C233        C  0.86181984  0.62373126  0.08876095    -0.21000
C234        C  0.87801132  0.64102710  0.08671599    -0.21000
C235        C  0.85572813  0.61677998  0.89930259    -0.21000
C236        C  0.87107641  0.63481051  0.89720835    -0.21000
C237        C  0.83818372  0.56102408  0.01536483    -0.22100
C238        C  0.83775112  0.55953119  0.98283266    -0.22100
C239        C  0.93197582  0.66669825  0.00254985    -0.22100
C240        C  0.93092097  0.66566932  0.96999413    -0.22100
C241        C  0.84948379  0.59172765  0.05346616    -0.17400
C242        C  0.90645575  0.65315355  0.04607065    -0.17400
C243        C  0.90258920  0.64961900  0.93149429    -0.17400
C244        C  0.84788116  0.58648980  0.93937490    -0.17400
H245        H  0.85094626  0.62022235  0.10908020     0.15500
H246        H  0.88203726  0.65342608  0.10512145     0.15500
H247        H  0.84332933  0.61181755  0.88130284     0.15500
H248        H  0.87284697  0.64645105  0.87727362     0.15500
H249        H  0.83194882  0.54806711  0.03174979     0.13800
H250        H  0.83105210  0.54524141  0.96907683     0.13800
H251        H  0.94534021  0.67508642  0.01634937     0.13800
H252        H  0.94334973  0.67305225  0.95372332     0.13800
H253        H  0.88398295  0.61517187  0.01915568     0.27000
H254        H  0.88405789  0.61236063  0.96540587     0.27000
N255        N  0.37930228  0.86952920  0.04920689    -0.35800
N256        N  0.40302253  0.84173177  0.00212576    -0.56300
N257        N  0.37658926  0.86418612  0.95148932    -0.35700
N258        N  0.35035025  0.88953872  0.99857081    -0.56300
C259        C  0.38919914  0.85326076  0.06784851     0.27800
C260        C  0.36174155  0.87890952  0.06590701     0.27800
C261        C  0.38747224  0.84751159  0.93474843     0.27800
C262        C  0.35951069  0.87279686  0.93294589     0.27800
C263        C  0.41605322  0.83691583  0.02794675     0.36500
C264        C  0.41513582  0.83440412  0.97664187     0.36500
C265        C  0.34426470  0.90303373  0.02333785     0.36500
C266        C  0.34280786  0.90034917  0.97205820     0.36500
C267        C  0.37780670  0.85238100  0.09675993    -0.21000
C268        C  0.36062633  0.86874941  0.09566332    -0.21000
C269        C  0.37738958  0.84571098  0.90497008    -0.21000
C270        C  0.35963754  0.86148558  0.90394151    -0.21000
C271        C  0.43649906  0.82642029  0.01883571    -0.22100
C272        C  0.43584520  0.82466475  0.98638598    -0.22100
C273        C  0.33258798  0.92237496  0.01262259    -0.22100
C274        C  0.33182305  0.92077014  0.98011809    -0.22100
C275        C  0.40871296  0.83980446  0.05972126    -0.17400
C276        C  0.34750452  0.89720818  0.05556957    -0.17400
C277        C  0.34473813  0.89147777  0.94082285    -0.17400
C278        C  0.40715418  0.83497157  0.94488532    -0.17400
H279        H  0.38152368  0.84117928  0.11666038     0.15500
H280        H  0.34861523  0.87264666  0.11458598     0.15500
H281        H  0.38245959  0.83443748  0.88574168     0.15500
H282        H  0.34835524  0.86451410  0.88387612     0.15500
H283        H  0.45028070  0.82029444  0.03402417     0.13800
H284        H  0.44903943  0.81686317  0.97172592     0.13800
H285        H  0.32527303  0.93613131  0.02676660     0.13800
H286        H  0.32391714  0.93315709  0.96427154     0.13800
H287        H  0.38493315  0.87488419  0.02698438     0.27000
H288        H  0.38150258  0.87025935  0.97360748     0.27000
N289        N  0.12672090  0.61571304  0.54528652    -0.35800
N290        N  0.15304717  0.59093473  0.49588003    -0.56300
N291        N  0.12580304  0.61375239  0.44746693    -0.35700
N292        N  0.10219403  0.64093698  0.49647958    -0.56300
C293        C  0.14449233  0.60692897  0.56240753     0.27800
C294        C  0.11707467  0.63282234  0.56286547     0.27800
C295        C  0.14094878  0.60217446  0.42880334     0.27800
C296        C  0.11523801  0.62965591  0.42894370     0.27800
C297        C  0.15995339  0.57937499  0.52204596     0.36500
C298        C  0.15859443  0.57754105  0.47070353     0.36500
C299        C  0.09026829  0.64844120  0.52206476     0.36500
C300        C  0.09040769  0.64811006  0.47060846     0.36500
C301        C  0.14597943  0.61843513  0.59123537    -0.21000
C302        C  0.12865531  0.63471496  0.59154237    -0.21000
C303        C  0.13970847  0.61052745  0.39804342    -0.21000
C304        C  0.12345145  0.62779942  0.39809421    -0.21000
C305        C  0.17000586  0.55858594  0.51340139    -0.22100
C306        C  0.16936379  0.55755028  0.48087425    -0.22100
C307        C  0.07084869  0.66051647  0.51240332    -0.22100
C308        C  0.07105683  0.66051491  0.47987042    -0.22100
C309        C  0.15842826  0.58784857  0.55349679    -0.17400
C310        C  0.09773744  0.64633882  0.55392101    -0.17400
C311        C  0.09746310  0.64485011  0.43873350    -0.17400
C312        C  0.15503766  0.58356576  0.43855593    -0.17400
H313        H  0.15823200  0.61535247  0.61018408     0.15500
H314        H  0.12502112  0.64661220  0.61069195     0.15500
H315        H  0.14931031  0.60462110  0.37756881     0.15500
H316        H  0.11806286  0.63759082  0.37752633     0.15500
H317        H  0.17716652  0.54552544  0.52888677     0.13800
H318        H  0.17594714  0.54361939  0.46637775     0.13800
H319        H  0.05809025  0.66887549  0.52722159     0.13800
H320        H  0.05844126  0.66890309  0.46484118     0.13800
H321        H  0.12086296  0.60957153  0.52404909     0.27000
H322        H  0.12214360  0.61035011  0.47046239     0.27000
N323        N  0.36699543  0.12291494  0.54902187    -0.35800
N324        N  0.34433418  0.09610138  0.49865065    -0.56300
N325        N  0.37039092  0.12177305  0.45145306    -0.35700
N326        N  0.39562045  0.14590470  0.50190293    -0.56300
C327        C  0.35700435  0.10578408  0.56596300     0.27800
C328        C  0.38348561  0.13247956  0.56766825     0.27800
C329        C  0.36025433  0.10563438  0.43281479     0.27800
C330        C  0.38779979  0.13131463  0.43453755     0.27800
C331        C  0.33137674  0.08967136  0.52382390     0.36500
C332        C  0.33255590  0.08963922  0.47234483     0.36500
C333        C  0.40220104  0.15801021  0.52783150     0.36500
C334        C  0.40442964  0.15704346  0.47646195     0.36500
C335        C  0.36722763  0.10454552  0.59572406    -0.21000
C336        C  0.38377773  0.12151979  0.59689195    -0.21000
C337        C  0.37123568  0.10508082  0.40358566    -0.21000
C338        C  0.38857260  0.12128149  0.40465199    -0.21000
C339        C  0.31134497  0.07890600  0.51348444    -0.22100
C340        C  0.31205825  0.07895545  0.48086299    -0.22100
C341        C  0.41551119  0.17678192  0.51887190    -0.22100
C342        C  0.41695980  0.17614875  0.48631271    -0.22100
C343        C  0.33814209  0.09199734  0.55596809    -0.17400
C344        C  0.39770496  0.15139691  0.55953402    -0.17400
C345        C  0.40229762  0.14961538  0.44458873    -0.17400
C346        C  0.34067751  0.09215836  0.44083889    -0.17400
H347        H  0.36307747  0.09274265  0.61478710     0.15500
H348        H  0.39484855  0.12528060  0.61695506     0.15500
H349        H  0.36712588  0.09420300  0.38347453     0.15500
H350        H  0.40033345  0.12530049  0.38547321     0.15500
H351        H  0.29769871  0.07167443  0.52794401     0.13800
H352        H  0.29908615  0.07175043  0.46521630     0.13800
H353        H  0.42359483  0.18941393  0.53420835     0.13800
H354        H  0.42630806  0.18827058  0.47159204     0.13800
H355        H  0.36194704  0.12860176  0.52671266     0.27000
H356        H  0.36493503  0.12690814  0.47376545     0.27000
N357        N  0.87537915  0.37269193  0.54660138    -0.35800
N358        N  0.89621691  0.34323436  0.49842020    -0.56300
N359        N  0.87150062  0.36840612  0.44897329    -0.35700
N360        N  0.84814306  0.39555801  0.49720583    -0.56300
C361        C  0.88525819  0.35618165  0.56486790     0.27800
C362        C  0.85886696  0.38305904  0.56431794     0.27800
C363        C  0.87936994  0.35007299  0.43236453     0.27800
C364        C  0.85456522  0.37829095  0.43156214     0.27800
C365        C  0.90958664  0.33757491  0.52355364     0.36500
C366        C  0.90695662  0.33477356  0.47243330     0.36500
C367        C  0.84188663  0.40842525  0.52254222     0.36500
C368        C  0.84108265  0.40716386  0.47110007     0.36500
C369        C  0.87510608  0.35624697  0.59463620    -0.21000
C370        C  0.85860133  0.37329187  0.59438854    -0.21000
C371        C  0.86737964  0.34832511  0.40395792    -0.21000
C372        C  0.85160624  0.36606809  0.40353723    -0.21000
C373        C  0.92881212  0.32535296  0.51345992    -0.22100
C374        C  0.92707992  0.32348108  0.48107853    -0.22100
C375        C  0.83046381  0.42812004  0.51252311    -0.22100
C376        C  0.83026636  0.42750749  0.47995703    -0.22100
C377        C  0.90363570  0.34151262  0.55566713    -0.17400
C378        C  0.84469366  0.40169888  0.55457126    -0.17400
C379        C  0.84259812  0.39873366  0.43959905    -0.17400
C380        C  0.89813717  0.33590755  0.44123044    -0.17400
H381        H  0.87919798  0.34519269  0.61455655     0.15500
H382        H  0.84768083  0.37791692  0.61421347     0.15500
H383        H  0.86987098  0.33569823  0.38535311     0.15500
H384        H  0.83953147  0.36972917  0.38456643     0.15500
H385        H  0.94251139  0.31824773  0.52795960     0.13800
H386        H  0.93915059  0.31465532  0.46569454     0.13800
H387        H  0.82286163  0.44145987  0.52710643     0.13800
H388        H  0.82257103  0.44037091  0.46464734     0.13800
H389        H  0.88037686  0.37732093  0.52381942     0.27000
H390        H  0.87836816  0.37474953  0.47000148     0.27000
N391        N  0.62860825  0.86343078  0.54938402    -0.35800
N392        N  0.60367794  0.83766136  0.50018182    -0.56300
N393        N  0.62629507  0.86513681  0.45192448    -0.35700
N394        N  0.65395285  0.88838274  0.50127047    -0.56300
C395        C  0.61899351  0.84623307  0.56649559     0.27800
C396        C  0.64611691  0.87228373  0.56688895     0.27800
C397        C  0.61671981  0.84846150  0.43359877     0.27800
C398        C  0.64216056  0.87627837  0.43408110     0.27800
C399        C  0.59153297  0.83107480  0.52597099     0.36500
C400        C  0.59134902  0.83083117  0.47459983     0.36500
C401        C  0.66098347  0.90015781  0.52728211     0.36500
C402        C  0.65890913  0.90181463  0.47599956     0.36500
C403        C  0.63039276  0.84423846  0.59536019    -0.21000
C404        C  0.64762225  0.86056260  0.59549274    -0.21000
C405        C  0.62652279  0.84921262  0.40358106    -0.21000
C406        C  0.64244563  0.86686925  0.40382214    -0.21000
C407        C  0.57150904  0.81975961  0.51677666    -0.22100
C408        C  0.57132789  0.81972488  0.48419633    -0.22100
C409        C  0.67058777  0.92107940  0.51848957    -0.22100
C410        C  0.66943296  0.92206575  0.48596776    -0.22100
C411        C  0.59929805  0.83334826  0.55756774    -0.17400
C412        C  0.65961664  0.89174060  0.55870795    -0.17400
C413        C  0.65555552  0.89541115  0.44394678    -0.17400
C414        C  0.59861572  0.83336174  0.44276569    -0.17400
H415        H  0.62661142  0.83241249  0.61452821     0.15500
H416        H  0.65965927  0.86368719  0.61469726     0.15500
H417        H  0.62250781  0.83830530  0.38346889     0.15500
H418        H  0.65302245  0.87217667  0.38394846     0.15500
H419        H  0.55855069  0.81203973  0.53193204     0.13800
H420        H  0.55810207  0.81215840  0.46929255     0.13800
H421        H  0.67774957  0.93422346  0.53386126     0.13800
H422        H  0.67568324  0.93607689  0.47132580     0.13800
H423        H  0.62242339  0.86976024  0.52795082     0.27000
H424        H  0.62150849  0.86961557  0.47482027     0.27000
C425        C  0.31793241  0.04563986  0.38478971    -0.13500
C426        C  0.30576501  0.05888755  0.36243965     0.16900
C427        C  0.30486218  0.08303993  0.36630486     0.03200
C428        C  0.31596808  0.09347438  0.39219740    -0.12000
C429        C  0.32813610  0.08023066  0.41452247    -0.03100
C430        C  0.32910585  0.05609011  0.41063718     0.02400
C431        C  0.29292095  0.04709572  0.33646761     0.09300
N432        N  0.29329486  0.09723483  0.34359191     0.65600
H433        H  0.31536154  0.11206689  0.39471246     0.18500
N434        N  0.34167705  0.04203470  0.43248206     0.76100
H435        H  0.31855013  0.02704698  0.38233643     0.10000
C436        C  0.30426333  0.03328022  0.31384727     0.03700
C437        C  0.29143185  0.02137687  0.29083673    -0.05000
C438        C  0.26711242  0.02260131  0.28985679    -0.23400
C439        C  0.25579476  0.03630331  0.31301828     0.13000
C440        C  0.26875290  0.04848321  0.33567923    -0.12500
N441        N  0.32887439  0.03136593  0.31368589     0.64700
H442        H  0.30074392  0.01106445  0.27365697     0.12500
N443        N  0.23118062  0.03760415  0.31469376     0.61300
H444        H  0.25978972  0.05858934  0.35345613     0.08700
O445        O  0.33101995  0.03156318  0.45426324    -0.40200
O446        O  0.36231429  0.03664534  0.42640051    -0.39300
O447        O  0.27434018  0.10660973  0.35075111    -0.39300
O448        O  0.30386500  0.10361807  0.31892889    -0.37000
O449        O  0.22100684  0.05559701  0.30531473    -0.38000
O450        O  0.22027723  0.02305948  0.33118986    -0.34100
O451        O  0.33823910  0.01266765  0.32199304    -0.35500
O452        O  0.34079275  0.04651779  0.29976200    -0.39800
C453        C  0.27428342  0.95644774  0.14197931    -0.13500
C454        C  0.29570384  0.94714880  0.15085906     0.16900
C455        C  0.30410287  0.95140675  0.18176524     0.03200
C456        C  0.29088480  0.96436879  0.20315890    -0.12000
C457        C  0.26912340  0.97315649  0.19456392    -0.03100
C458        C  0.26094835  0.96921812  0.16340365     0.02400
C459        C  0.30919902  0.93374782  0.12713084     0.09300
N460        N  0.32563054  0.94201810  0.19219955     0.65600
H461        H  0.29749570  0.96706519  0.22694681     0.18500
N462        N  0.23968630  0.97892243  0.15252851     0.76100
H463        H  0.26801649  0.95416814  0.11794651     0.10000
C464        C  0.29923628  0.91492637  0.11071560     0.03700
C465        C  0.31184901  0.90341607  0.08725686    -0.05000
C466        C  0.33439769  0.91021864  0.07988821    -0.23400
C467        C  0.34439796  0.92901511  0.09591997     0.13000
C468        C  0.33177131  0.94070000  0.11928374    -0.12500
N469        N  0.27646824  0.90701464  0.11800934     0.64700
H470        H  0.30413608  0.88889551  0.07497601     0.12500
N471        N  0.36713209  0.93670534  0.08800840     0.61300
H472        H  0.33944148  0.95552739  0.13085876     0.08700
O473        O  0.22299276  0.96575053  0.14597187    -0.40200
O474        O  0.23939133  0.99947734  0.14270616    -0.39300
O475        O  0.34279542  0.95519163  0.19582954    -0.39300
O476        O  0.32610945  0.92203240  0.20402218    -0.37000
O477        O  0.38446588  0.92720074  0.10060230    -0.38000
O478        O  0.36995685  0.95065453  0.06535380    -0.34100
O479        O  0.26031254  0.91033346  0.09840494    -0.35500
O480        O  0.27357471  0.89293292  0.14048316    -0.39800
C481        C  0.03816843  0.68433175  0.31728326    -0.13500
C482        C  0.04668578  0.69607381  0.34390206     0.16900
C483        C  0.04399738  0.72020529  0.34561572     0.03200
C484        C  0.03277139  0.73198563  0.32110421    -0.12000
C485        C  0.02383572  0.72027378  0.29454399    -0.03100
C486        C  0.02678069  0.69601149  0.29277552     0.02400
C487        C  0.05943881  0.68296776  0.36860610     0.09300
N488        N  0.05205841  0.73299044  0.37245418     0.65600
H489        H  0.03069403  0.75045622  0.32335501     0.18500
N490        N  0.01910739  0.68287831  0.26601356     0.76100
H491        H  0.04096387  0.66593371  0.31499794     0.10000
C492        C  0.05016351  0.66269333  0.38220748     0.03700
C493        C  0.06311208  0.65017030  0.40426697    -0.05000
C494        C  0.08495524  0.65785280  0.41383001    -0.23400
C495        C  0.09435586  0.67795211  0.40027058     0.13000
C496        C  0.08173579  0.69011709  0.37745564    -0.12500
N497        N  0.02730934  0.65505898  0.37475124     0.64700
H498        H  0.05581077  0.63474413  0.41478977     0.12500
N499        N  0.11660641  0.68623762  0.40961965     0.61300
H500        H  0.08946052  0.70515724  0.36651463     0.08700
O501        O  0.00552645  0.66612208  0.27025737    -0.40200
O502        O  0.02981353  0.68453088  0.24003333    -0.39300
O503        O  0.06831206  0.74730523  0.36910972    -0.39300
O504        O  0.04032217  0.73311713  0.39766892    -0.37000
O505        O  0.13399900  0.68180830  0.39265711    -0.38000
O506        O  0.11810947  0.70145403  0.43092820    -0.34100
O507        O  0.02442924  0.63625229  0.36018763    -0.35500
O508        O  0.01023083  0.66476403  0.38766138    -0.39800
C509        C  0.95281087  0.69198181  0.17675173    -0.13500
C510        C  0.95688933  0.69966087  0.14566228     0.16900
C511        C  0.97033883  0.71963782  0.14089380     0.03200
C512        C  0.97946243  0.73147244  0.16695966    -0.12000
C513        C  0.97572979  0.72360716  0.19801209    -0.03100
C514        C  0.96204978  0.70374698  0.20290516     0.02400
C515        C  0.94539032  0.68777047  0.11876335     0.09300
N516        N  0.97560891  0.72762206  0.10964374     0.65600
H517        H  0.99021795  0.74647968  0.16278958     0.18500
N518        N  0.95614374  0.69617569  0.23418238     0.76100
H519        H  0.94169068  0.67723520  0.18080771     0.10000
C520        C  0.94755107  0.66375407  0.11414748     0.03700
C521        C  0.93493854  0.65289933  0.09007639    -0.05000
C522        C  0.92024595  0.66560381  0.07027038    -0.23400
C523        C  0.91819370  0.68956829  0.07457918     0.13000
C524        C  0.93067007  0.70044114  0.09877956    -0.12500
N525        N  0.96265790  0.65021722  0.13346143     0.64700
H526        H  0.93656965  0.63442892  0.08679769     0.12500
N527        N  0.90277849  0.70285815  0.05543405     0.61300
H528        H  0.92826472  0.71875453  0.10263030     0.08700
O529        O  0.96023215  0.67563548  0.24231632    -0.40200
O530        O  0.94259076  0.70820792  0.25077325    -0.39300
O531        O  0.96693636  0.74625640  0.09979070    -0.39300
O532        O  0.99199822  0.71848380  0.09446351    -0.37000
O533        O  0.88191508  0.70487081  0.06361237    -0.38000
O534        O  0.91078363  0.71573301  0.03394835    -0.34100
O535        O  0.95428745  0.63559226  0.15242837    -0.35500
O536        O  0.98396209  0.64970234  0.12721187    -0.39800
C537        C  0.69420374  0.95542613  0.32225550    -0.13500
C538        C  0.70371445  0.95243430  0.35265248     0.16900
C539        C  0.72580192  0.96167019  0.35906091     0.03200
C540        C  0.73813904  0.97290010  0.33502445    -0.12000
C541        C  0.72873254  0.97575306  0.30451868    -0.03100
C542        C  0.70628655  0.96720458  0.29841963     0.02400
C543        C  0.69113802  0.93818814  0.37645934     0.09300
N544        N  0.73572785  0.96030738  0.39008555     0.65600
H545        H  0.75511003  0.97974856  0.34048522     0.18500
N546        N  0.69591047  0.96927936  0.26777402     0.76100
H547        H  0.67753776  0.94796575  0.31661400     0.10000
C548        C  0.66767750  0.94229106  0.38390023     0.03700
C549        C  0.65609209  0.92770276  0.40507988    -0.05000
C550        C  0.66758285  0.90920085  0.41939912    -0.23400
C551        C  0.69086094  0.90493847  0.41202597     0.13000
C552        C  0.70240240  0.91926630  0.39051589    -0.12500
N553        N  0.65565267  0.96171955  0.37116591     0.64700
H554        H  0.63824553  0.93121684  0.41113454     0.12500
N555        N  0.70291236  0.88612343  0.42638449     0.61300
H556        H  0.72013887  0.91536188  0.38440150     0.08700
O557        O  0.68038565  0.98419407  0.26326856    -0.40200
O558        O  0.69890551  0.95355505  0.24749240    -0.39300
O559        O  0.75310032  0.94760988  0.39473657    -0.39300
O560        O  0.73032154  0.97516880  0.41065054    -0.37000
O561        O  0.69921410  0.86577541  0.41703665    -0.38000
O562        O  0.71507162  0.88953936  0.45080864    -0.34100
O563        O  0.63926342  0.95857988  0.35186623    -0.35500
O564        O  0.65828003  0.98127101  0.38381813    -0.39800
C565        C  0.67846982  0.06338299  0.13492874    -0.13500
C566        C  0.70241952  0.06670222  0.13763576     0.16900
C567        C  0.71386327  0.08034542  0.11469781     0.03200
C568        C  0.70125772  0.09028827  0.08976119    -0.12000
C569        C  0.67730079  0.08708928  0.08745489    -0.03100
C570        C  0.66588281  0.07360245  0.11037664     0.02400
C571        C  0.71508055  0.05414831  0.16304952     0.09300
N572        N  0.73808493  0.08485919  0.11694980     0.65600
H573        H  0.71010292  0.10091917  0.07244780     0.18500
N574        N  0.64151845  0.06983808  0.10867818     0.76100
H575        H  0.66949337  0.05237016  0.15163387     0.10000
C576        C  0.70756905  0.05480006  0.19493334     0.03700
C577        C  0.71736850  0.03991657  0.21738312    -0.05000
C578        C  0.73530394  0.02488787  0.20899907    -0.23400
C579        C  0.74347909  0.02486745  0.17744007     0.13000
C580        C  0.73312580  0.03916961  0.15473687    -0.12500
N581        N  0.69050172  0.07101067  0.20505137     0.64700
H582        H  0.71140905  0.04063232  0.24174373     0.12500
N583        N  0.76144400  0.00954082  0.16768355     0.61300
H584        H  0.73870321  0.03794801  0.13026303     0.08700
O585        O  0.62823457  0.08107837  0.12666288    -0.40200
O586        O  0.63383916  0.05249535  0.09396795    -0.39300
O587        O  0.75161456  0.07651211  0.09649038    -0.39300
O588        O  0.74516539  0.10070040  0.13505194    -0.37000
O589        O  0.75631510  0.98975133  0.15738885    -0.38000
O590        O  0.78169377  0.01714678  0.16398304    -0.34100
O591        O  0.67104221  0.06392690  0.21437990    -0.35500
O592        O  0.69632434  0.09164177  0.21028219    -0.39800
C593        C  0.10838019  0.00353511  0.26747016    -0.13500
C594        C  0.11938770  0.99931471  0.23840025     0.16900
C595        C  0.10581012  0.99350459  0.21177983     0.03200
C596        C  0.08173940  0.99209352  0.21455354    -0.12000
C597        C  0.07059078  0.99621892  0.24364407    -0.03100
C598        C  0.08428866  0.00208790  0.27036193     0.02400
C599        C  0.14507134  0.99950109  0.23698092     0.09300
N600        N  0.11617668  0.98930123  0.18157739     0.65600
H601        H  0.07175860  0.98754748  0.19369974     0.18500
N602        N  0.07415671  0.00679016  0.30059360     0.76100
H603        H  0.11860845  0.00760379  0.28829014     0.10000
C604        C  0.15803771  0.01888977  0.24663612     0.03700
C605        C  0.18219803  0.01765358  0.24792570    -0.05000
C606        C  0.19395326  0.99743434  0.23925544    -0.23400
C607        C  0.18096299  0.97807935  0.22930460     0.13000
C608        C  0.15678265  0.97928117  0.22833813    -0.12500
N609        N  0.14694945  0.04017649  0.25432543     0.64700
H610        H  0.19184268  0.03280184  0.25514419     0.12500
N611        N  0.19187573  0.95659319  0.22217765     0.61300
H612        H  0.14705584  0.96399523  0.22195698     0.08700
O613        O  0.06938600  0.02732476  0.30801640    -0.40200
O614        O  0.07463817  0.99151514  0.32191752    -0.39300
O615        O  0.11802955  0.96885281  0.17165119    -0.39300
O616        O  0.11863740  0.00580698  0.16236556    -0.37000
O617        O  0.19800976  0.94354906  0.24462252    -0.38000
O618        O  0.19068283  0.94856717  0.19439037    -0.34100
O619        O  0.14684253  0.04715069  0.28269455    -0.35500
O620        O  0.14161136  0.05395438  0.23233421    -0.39800
C621        C  0.01421673  0.83283024  0.27013410    -0.13500
C622        C  0.00282482  0.84478150  0.24580776     0.16900
C623        C  0.99261297  0.83212203  0.22095058     0.03200
C624        C  0.99298379  0.80796730  0.22154363    -0.12000
C625        C  0.00387437  0.79575656  0.24629963    -0.03100
C626        C  0.01517360  0.80864172  0.27039763     0.02400
C627        C  0.00250194  0.87044270  0.24622856     0.09300
N628        N  0.98137127  0.84354293  0.19517416     0.65600
H629        H  0.98449803  0.79879671  0.20240037     0.18500
N630        N  0.02816124  0.79766455  0.29496306     0.76100
H631        H  0.02284782  0.84239361  0.28880554     0.10000
C632        C  0.99219406  0.88276899  0.27135937     0.03700
C633        C  0.99289782  0.90695951  0.27167153    -0.05000
C634        C  0.00346979  0.91934138  0.24696464    -0.23400
C635        C  0.01396252  0.90693391  0.22193520     0.13000
C636        C  0.01342694  0.88274356  0.22182166    -0.12500
N637        N  0.98005133  0.87096359  0.29600345     0.64700
H638        H  0.98448706  0.91610965  0.29087725     0.12500
N639        N  0.02612902  0.91858290  0.19717453     0.61300
H640        H  0.02196435  0.87349418  0.20281772     0.08700
O641        O  0.01998991  0.79666883  0.32267977    -0.40200
O642        O  0.04932158  0.79351572  0.29059463    -0.39300
O643        O  0.99162878  0.84536225  0.16887807    -0.39300
O644        O  0.95995457  0.84740297  0.19664059    -0.37000
O645        O  0.04716782  0.92360191  0.20096593    -0.38000
O646        O  0.01726183  0.91993770  0.16987030    -0.34100
O647        O  0.98915631  0.86898037  0.32308446    -0.35500
O648        O  0.95889775  0.86636237  0.29244137    -0.39800
C649        C  0.88937502  0.99212328  0.22896050    -0.13500
C650        C  0.87953581  0.99434584  0.25920380     0.16900
C651        C  0.89392002  0.99357823  0.28607965     0.03200
C652        C  0.91779950  0.99102113  0.28237327    -0.12000
C653        C  0.92791649  0.98915054  0.25206877    -0.03100
C654        C  0.91327217  0.98946572  0.22512892     0.02400
C655        C  0.85410350  0.99621054  0.26210293     0.09300
N656        N  0.88459902  0.99616154  0.31726497     0.65600
H657        H  0.92847662  0.99094935  0.30350381     0.18500
N658        N  0.92220478  0.98689024  0.19373512     0.76100
H659        H  0.87835745  0.99215840  0.20814232     0.10000
C660        C  0.84198054  0.01452780  0.24787627     0.03700
C661        C  0.81784246  0.01429647  0.24733818    -0.05000
C662        C  0.80526671  0.99612166  0.26111884    -0.23400
C663        C  0.81747492  0.97813341  0.27638707     0.13000
C664        C  0.84169590  0.97835528  0.27672663    -0.12500
N665        N  0.85398313  0.03367093  0.23428250     0.64700
H666        H  0.80891567  0.02859436  0.23621020     0.12500
N667        N  0.80569890  0.95879923  0.28984883     0.61300
H668        H  0.85087589  0.96398421  0.28727239     0.08700
O669        O  0.92500701  0.00448831  0.17654409    -0.40200
O670        O  0.92283437  0.96711391  0.18126260    -0.39300
O671        O  0.88264477  0.97873842  0.33500230    -0.39300
O672        O  0.88240314  0.01607788  0.32894261    -0.37000
O673        O  0.79880484  0.94270394  0.27203171    -0.38000
O674        O  0.80565206  0.95598312  0.31954654    -0.34100
O675        O  0.85399655  0.03637866  0.20456903    -0.35500
O676        O  0.86058934  0.04996473  0.25196107    -0.39800
C677        C  0.93121926  0.27318439  0.31897575    -0.13500
C678        C  0.94457293  0.28401195  0.34255019     0.16900
C679        C  0.96890731  0.28207637  0.34125922     0.03200
C680        C  0.97932761  0.27060601  0.31574458    -0.12000
C681        C  0.96597249  0.25974815  0.29240887    -0.03100
C682        C  0.94171305  0.26085053  0.29424015     0.02400
C683        C  0.93278437  0.29749066  0.36788432     0.09300
N684        N  0.98316104  0.29013418  0.36673703     0.65600
H685        H  0.99799333  0.26919576  0.31493037     0.18500
N686        N  0.92756007  0.25013247  0.27067724     0.76100
H687        H  0.91254821  0.27446039  0.31966140     0.10000
C688        C  0.93793303  0.32103317  0.37321137     0.03700
C689        C  0.92665335  0.33306312  0.39747980    -0.05000
C690        C  0.90980759  0.32230026  0.41608818    -0.23400
C691        C  0.90424599  0.29902723  0.41052195     0.13000
C692        C  0.91580938  0.28675503  0.38665860    -0.12500
N693        N  0.95352733  0.33334549  0.35306430     0.64700
H694        H  0.93063885  0.35111348  0.40137334     0.12500
N695        N  0.88656556  0.28788375  0.42852357     0.61300
H696        H  0.91149557  0.26879359  0.38269332     0.08700
O697        O  0.91834817  0.23086303  0.27645695    -0.40200
O698        O  0.92064994  0.26177783  0.24722611    -0.39300
O699        O  0.98092830  0.28130578  0.39394271    -0.39300
O700        O  0.00083907  0.30212604  0.36076758    -0.37000
O701        O  0.89159244  0.27770412  0.45407221    -0.38000
O702        O  0.86567229  0.29014355  0.42054798    -0.34100
O703        O  0.94772668  0.33755323  0.32477511    -0.35500
O704        O  0.97033097  0.34412687  0.36512505    -0.39800
C705        C  0.07637319  0.28895717  0.11603902    -0.13500
C706        C  0.05580781  0.29746711  0.12927221     0.16900
C707        C  0.04777267  0.31940786  0.11964825     0.03200
C708        C  0.06003557  0.33212588  0.09687053    -0.12000
C709        C  0.08035605  0.32340967  0.08339100    -0.03100
C710        C  0.08863376  0.30172400  0.09331513     0.02400
C711        C  0.04348552  0.28376078  0.15399575     0.09300
N712        N  0.02685979  0.32875530  0.13220633     0.65600
H713        H  0.05353892  0.34878264  0.08937045     0.18500
N714        N  0.10965112  0.29262820  0.08076069     0.76100
H715        H  0.08314375  0.27246645  0.12373473     0.10000
C716        C  0.03565791  0.26106988  0.14822787     0.03700
C717        C  0.02377077  0.24892597  0.17196803    -0.05000
C718        C  0.01948462  0.25888128  0.20181622    -0.23400
C719        C  0.02839037  0.28117714  0.20805165     0.13000
C720        C  0.04008750  0.29335144  0.18419972    -0.12500
N721        N  0.03887876  0.25039447  0.11799439     0.64700
H722        H  0.01725924  0.23183971  0.16658401     0.12500
N723        N  0.02668453  0.29133261  0.23887145     0.61300
H724        H  0.04694377  0.31030977  0.18952170     0.08700
O725        O  0.10897258  0.27840918  0.05811488    -0.40200
O726        O  0.12836502  0.29581162  0.09551294    -0.39300
O727        O  0.02782515  0.34416223  0.15332200    -0.39300
O728        O  0.00803735  0.32512653  0.11792674    -0.37000
O729        O  0.04155474  0.28640617  0.25971300    -0.38000
O730        O  0.01337758  0.30826359  0.24322113    -0.34100
O731        O  0.05418485  0.23508291  0.11482911    -0.35500
O732        O  0.02352462  0.25256742  0.09693614    -0.39800
C733        C  0.97822380  0.14801092  0.26756597    -0.13500
C734        C  0.99142573  0.13637178  0.24479492     0.16900
C735        C  0.00281177  0.14926825  0.22120554     0.03200
C736        C  0.00142610  0.17341410  0.22128169    -0.12000
C737        C  0.98863627  0.18535171  0.24451338    -0.03100
C738        C  0.97658847  0.17215593  0.26759594     0.02400
C739        C  0.99254670  0.11074536  0.24545291     0.09300
N740        N  0.01645901  0.13809298  0.19752963     0.65600
H741        H  0.01074999  0.18281204  0.20313534     0.18500
N742        N  0.96248213  0.18278161  0.29123040     0.76100
H743        H  0.96890420  0.13823647  0.28536131     0.10000
C744        C  0.00172326  0.09882030  0.27175870     0.03700
C745        C  0.00218084  0.07464697  0.27191933    -0.05000
C746        C  0.99350954  0.06185754  0.24620020    -0.23400
C747        C  0.98357806  0.07385792  0.22030338     0.13000
C748        C  0.98341054  0.09805371  0.22002885    -0.12500
N749        N  0.01128892  0.11105767  0.29810794     0.64700
H750        H  0.00984956  0.06587579  0.29204322     0.12500
N751        N  0.97245566  0.06179631  0.19493663     0.61300
H752        H  0.97555315  0.10699896  0.20018660     0.08700
O753        O  0.94108890  0.18492685  0.28630025    -0.40200
O754        O  0.97028071  0.18536733  0.31898109    -0.39300
O755        O  0.00888277  0.13641358  0.16953280    -0.39300
O756        O  0.03733964  0.13343241  0.20323950    -0.37000
O757        O  0.95191834  0.05490907  0.19834233    -0.38000
O758        O  0.98153044  0.06156252  0.16772419    -0.34100
O759        O  0.00048258  0.11160221  0.32409077    -0.35500
O760        O  0.03206784  0.11760353  0.29716903    -0.39800
C761        C  0.69869127  0.96258771  0.66984847    -0.13500
C762        C  0.70518662  0.93986700  0.66255909     0.16900
C763        C  0.72409212  0.93001399  0.67885270     0.03200
C764        C  0.73640308  0.94302878  0.70119718    -0.12000
C765        C  0.72973958  0.96559668  0.70878678    -0.03100
C766        C  0.71050136  0.97534263  0.69306613     0.02400
C767        C  0.69325278  0.92734139  0.63634596     0.09300
N768        N  0.73029133  0.90641575  0.67414630     0.65600
H769        H  0.75075967  0.93509629  0.71359984     0.18500
N770        N  0.70325219  0.99843506  0.69944764     0.76100
H771        H  0.68460022  0.97065237  0.65707622     0.10000
C772        C  0.66899193  0.92479114  0.63545213     0.03700
C773        C  0.65848604  0.91365150  0.60968988    -0.05000
C774        C  0.67169745  0.90437896  0.58483996    -0.23400
C775        C  0.69594275  0.90683446  0.58575887     0.13000
C776        C  0.70640635  0.91855342  0.61108012    -0.12500
N777        N  0.65483425  0.93254422  0.66108335     0.64700
H778        H  0.63985347  0.91177967  0.60937615     0.12500
N779        N  0.71023047  0.89692243  0.56172420     0.61300
H780        H  0.72499643  0.92070530  0.61105189     0.08700
O781        O  0.68700411  0.00183322  0.71882486    -0.40200
O782        O  0.70885096  0.01431316  0.68046664    -0.39300
O783        O  0.74908573  0.90156679  0.66056122    -0.39300
O784        O  0.71973975  0.89094039  0.68941740    -0.37000
O785        O  0.72074765  0.90994049  0.54256296    -0.38000
O786        O  0.71633952  0.87611759  0.56420222    -0.34100
O787        O  0.64203265  0.94992711  0.65722483    -0.35500
O788        O  0.65114807  0.91921810  0.68420799    -0.39800
C789        C  0.70468589  0.07363586  0.88564747    -0.13500
C790        C  0.69191681  0.05540611  0.87230032     0.16900
C791        C  0.66927002  0.05111251  0.88329347     0.03200
C792        C  0.65999301  0.06491150  0.90736669    -0.12000
C793        C  0.67308933  0.08255956  0.92121217    -0.03100
C794        C  0.69548054  0.08710672  0.91006071     0.02400
C795        C  0.70354512  0.04015072  0.84905700     0.09300
N796        N  0.65602982  0.03202192  0.87184110     0.65600
H797        H  0.64269207  0.06145438  0.91597402     0.18500
N798        N  0.70898305  0.10531749  0.92341247     0.76100
H799        H  0.72208029  0.07711768  0.87742657     0.10000
C800        C  0.69538186  0.03691300  0.81783040     0.03700
C801        C  0.70784352  0.02290019  0.79682387    -0.05000
C802        C  0.72868097  0.01231502  0.80601568    -0.23400
C803        C  0.73649401  0.01533372  0.83751840     0.13000
C804        C  0.72392298  0.02912660  0.85852931    -0.12500
N805        N  0.67545387  0.04888123  0.80636792     0.64700
H806        H  0.70169442  0.02123371  0.77266789     0.12500
N807        N  0.75672537  0.00404854  0.84907328     0.61300
H808        H  0.73010128  0.03118509  0.88266933     0.08700
O809        O  0.72049460  0.10188629  0.94841063    -0.40200
O810        O  0.70828071  0.12522261  0.91135836    -0.39300
O811        O  0.66070631  0.01199455  0.88162666    -0.39300
O812        O  0.63674507  0.03568075  0.85878268    -0.37000
O813        O  0.77244899  0.01591099  0.86192693    -0.38000
O814        O  0.75616799  0.98256595  0.85376443    -0.34100
O815        O  0.67673965  0.07026430  0.80107887    -0.35500
O816        O  0.65878828  0.03755802  0.79489950    -0.39800
C817        C  0.94076761  0.26898787  0.66615618    -0.13500
C818        C  0.95279466  0.28583635  0.64879184     0.16900
C819        C  0.97632615  0.28976750  0.65598130     0.03200
C820        C  0.98707126  0.27731588  0.68042342    -0.12000
C821        C  0.97507064  0.26032752  0.69752003    -0.03100
C822        C  0.95167725  0.25610789  0.69005876     0.02400
C823        C  0.94018342  0.29998109  0.62470642     0.09300
N824        N  0.98981475  0.30568483  0.63787117     0.65600
H825        H  0.00514801  0.28053419  0.68551705     0.18500
N826        N  0.93832019  0.23981480  0.70767887     0.76100
H827        H  0.92251244  0.26629899  0.66190555     0.10000
C828        C  0.92620494  0.28970633  0.60106573     0.03700
C829        C  0.91403578  0.30355168  0.57957363    -0.05000
C830        C  0.91579473  0.32767357  0.58048806    -0.23400
C831        C  0.92944189  0.33804203  0.60428784     0.13000
C832        C  0.94124293  0.32420652  0.62628842    -0.12500
N833        N  0.92477518  0.26521705  0.59779124     0.64700
H834        H  0.90353754  0.29538483  0.56145034     0.12500
N835        N  0.93192051  0.36254142  0.60597059     0.61300
H836        H  0.95121655  0.33249545  0.64481803     0.08700
O837        O  0.92805655  0.22375401  0.69317083    -0.40200
O838        O  0.93251870  0.24451752  0.73580463    -0.39300
O839        O  0.99687361  0.32409352  0.65059800    -0.39300
O840        O  0.99832033  0.29933577  0.61173246    -0.37000
O841        O  0.94918415  0.37201534  0.59316782    -0.38000
O842        O  0.91998659  0.37381957  0.62562328    -0.34100
O843        O  0.90606380  0.25505469  0.60419542    -0.35500
O844        O  0.94013090  0.25469447  0.58227586    -0.39800
C845        C  0.05707903  0.26580470  0.82912835    -0.13500
C846        C  0.04565299  0.28460619  0.84319620     0.16900
C847        C  0.02413217  0.29159846  0.83048336     0.03200
C848        C  0.01467360  0.27998326  0.80444465    -0.12000
C849        C  0.02566927  0.26075344  0.79121143    -0.03100
C850        C  0.04711189  0.25360458  0.80380654     0.02400
C851        C  0.05696670  0.29764352  0.86958149     0.09300
N852        N  0.01105302  0.30979969  0.84460163     0.65600
H853        H  0.99798321  0.28541995  0.79548154     0.18500
N854        N  0.05935333  0.23450245  0.79054790     0.76100
H855        H  0.07400796  0.26070158  0.83748169     0.10000
C856        C  0.06700958  0.28647157  0.89609872     0.03700
C857        C  0.07805451  0.29948179  0.91969379    -0.05000
C858        C  0.07871273  0.32363103  0.91812950    -0.23400
C859        C  0.06841926  0.33483199  0.89201510     0.13000
C860        C  0.05828687  0.32182337  0.86774082    -0.12500
N861        N  0.06568106  0.26202017  0.89996249     0.64700
H862        H  0.08602721  0.29067560  0.93957290     0.12500
N863        N  0.06771318  0.35943656  0.89012992     0.61300
H864        H  0.05140690  0.33078386  0.84727832     0.08700
O865        O  0.05845660  0.21514497  0.80417747    -0.40200
O866        O  0.07475737  0.23812918  0.76997189    -0.39300
O867        O  0.00734152  0.32803157  0.82905284    -0.39300
O868        O  0.99925909  0.30571402  0.86913262    -0.37000
O869        O  0.05080299  0.37005844  0.90205804    -0.38000
O870        O  0.08079458  0.36981245  0.87090328    -0.34100
O871        O  0.08380734  0.25008404  0.89739518    -0.35500
O872        O  0.04817727  0.25336926  0.91324347    -0.39800
C873        C  0.30306456  0.07551190  0.62892212    -0.13500
C874        C  0.30452121  0.05137888  0.62818388     0.16900
C875        C  0.31672421  0.04060578  0.60330655     0.03200
C876        C  0.32733200  0.05407745  0.57984651    -0.12000
C877        C  0.32574658  0.07822237  0.58049728    -0.03100
C878        C  0.31346567  0.08895856  0.60533319     0.02400
C879        C  0.29195470  0.03798400  0.65265302     0.09300
N880        N  0.31772200  0.01605873  0.60079762     0.65600
H881        H  0.33679919  0.04566802  0.56092637     0.18500
N882        N  0.31112165  0.11347739  0.60658596     0.76100
H883        H  0.29351896  0.08393715  0.64775752     0.10000
C884        C  0.30354739  0.02577866  0.67674687     0.03700
C885        C  0.29082172  0.01424866  0.70020007    -0.05000
C886        C  0.26648558  0.01508742  0.70083082    -0.23400
C887        C  0.25500399  0.02766010  0.67658518     0.13000
C888        C  0.26779187  0.03867958  0.65279227    -0.12500
N889        N  0.32819430  0.02610498  0.67890628     0.64700
H890        H  0.30021948  0.00508513  0.71850549     0.12500
N891        N  0.23045746  0.03017822  0.67608519     0.61300
H892        H  0.25875851  0.04832718  0.63456852     0.08700
O893        O  0.32170874  0.12476459  0.62768794    -0.40200
O894        O  0.29537351  0.12316229  0.59074228    -0.39300
O895        O  0.30275270  0.00570580  0.58430446    -0.39300
O896        O  0.33619746  0.00575432  0.60793491    -0.37000
O897        O  0.21875261  0.01909369  0.65592690    -0.38000
O898        O  0.22132343  0.04696091  0.69041990    -0.34100
O899        O  0.33817410  0.04392858  0.68931389    -0.35500
O900        O  0.33928549  0.00741505  0.67731936    -0.39800
C901        C  0.30088991  0.96264706  0.83386779    -0.13500
C902        C  0.29344581  0.94031987  0.84214048     0.16900
C903        C  0.27268486  0.93198560  0.82846293     0.03200
C904        C  0.26003110  0.94586474  0.80744744    -0.12000
C905        C  0.26790052  0.96780933  0.79853721    -0.03100
C906        C  0.28865413  0.97615533  0.81189454     0.02400
C907        C  0.30677013  0.92669344  0.86631535     0.09300
N908        N  0.26464246  0.90908614  0.83447156     0.65600
H909        H  0.24435456  0.93898928  0.79699358     0.18500
N910        N  0.29710495  0.99866358  0.80438641     0.76100
H911        H  0.31611799  0.96992467  0.84494695     0.10000
C912        C  0.33119224  0.92506801  0.86547868     0.03700
C913        C  0.34311855  0.91370961  0.88991446    -0.05000
C914        C  0.33126490  0.90286828  0.91480805    -0.23400
C915        C  0.30690883  0.90364549  0.91508779     0.13000
C916        C  0.29500914  0.91606602  0.89163808    -0.12500
N917        N  0.34416879  0.93418965  0.83949792     0.64700
H918        H  0.36182338  0.91305382  0.88922232     0.12500
N919        N  0.29400748  0.89138454  0.93857930     0.61300
H920        H  0.27641398  0.91741144  0.89341106     0.08700
O921        O  0.31429438  0.00077862  0.78622032    -0.40200
O922        O  0.29056658  0.01570935  0.82067401    -0.39300
O923        O  0.24571391  0.90614062  0.84875851    -0.39300
O924        O  0.27359672  0.89242574  0.81967572    -0.37000
O925        O  0.29000965  0.87017734  0.93465903    -0.38000
O926        O  0.28290879  0.90239280  0.95940927    -0.34100
O927        O  0.35826338  0.95044798  0.84426091    -0.35500
O928        O  0.34512200  0.92302437  0.81382853    -0.39800
C929        C  0.89029498  0.97542051  0.73898237    -0.13500
C930        C  0.87808223  0.99217432  0.75624406     0.16900
C931        C  0.89066506  0.00832835  0.77452506     0.03200
C932        C  0.91488748  0.00770237  0.77483038    -0.12000
C933        C  0.92701126  0.99125701  0.75706007    -0.03100
C934        C  0.91452167  0.97478781  0.73934788     0.02400
C935        C  0.85232342  0.99134307  0.75689013     0.09300
N936        N  0.87911757  0.02578692  0.79241288     0.65600
H937        H  0.92429004  0.02043754  0.78856415     0.18500
N938        N  0.92613066  0.95622350  0.72376340     0.76100
H939        H  0.88095924  0.96219389  0.72609959     0.10000
C940        C  0.83903395  0.99134446  0.72880121     0.03700
C941        C  0.81490367  0.98931417  0.73040314    -0.05000
C942        C  0.80342739  0.98729790  0.75968409    -0.23400
C943        C  0.81682923  0.98674171  0.78780586     0.13000
C944        C  0.84096681  0.98890770  0.78607509    -0.12500
N945        N  0.84972654  0.99415909  0.69849353     0.64700
H946        H  0.80504104  0.98993980  0.70854417     0.12500
N947        N  0.80654073  0.98232089  0.81806631     0.61300
H948        H  0.85104645  0.98769401  0.80768572     0.08700
O949        O  0.92598432  0.95504029  0.69386503    -0.40200
O950        O  0.93254700  0.93897289  0.73975945    -0.39300
O951        O  0.87849802  0.02434275  0.82228538    -0.39300
O952        O  0.87394557  0.04461033  0.77918722    -0.37000
O953        O  0.79503035  0.96405722  0.82204139    -0.38000
O954        O  0.81327410  0.99349968  0.84207289    -0.34100
O955        O  0.85122464  0.97715034  0.67992450    -0.35500
O956        O  0.85369034  0.01419104  0.68814196    -0.39800
C957        C  0.99828211  0.10034876  0.72408184    -0.13500
C958        C  0.00169530  0.11251808  0.75240081     0.16900
C959        C  0.00411493  0.10019546  0.78102798     0.03200
C960        C  0.00325706  0.07604782  0.78079210    -0.12000
C961        C  0.99967609  0.06367869  0.75245505    -0.03100
C962        C  0.99720793  0.07622433  0.72378057     0.02400
C963        C  0.00136980  0.13806124  0.75147596     0.09300
N964        N  0.00616250  0.11191063  0.81074601     0.65600
H965        H  0.00504205  0.06699122  0.80315008     0.18500
N966        N  0.99304641  0.06493771  0.69418317     0.76100
H967        H  0.99618805  0.10971114  0.70199376     0.10000
C968        C  0.02112519  0.15135678  0.75835982     0.03700
C969        C  0.01988395  0.17547398  0.75700745    -0.05000
C970        C  0.99941842  0.18676013  0.74786915    -0.23400
C971        C  0.97980400  0.17330552  0.74039983     0.13000
C972        C  0.98094066  0.14921435  0.74239790    -0.12500
N973        N  0.04291494  0.14065398  0.76456104     0.64700
H974        H  0.03533624  0.18540325  0.76194685     0.12500
N975        N  0.95842266  0.18371693  0.73148613     0.61300
H976        H  0.96568374  0.13909504  0.73696999     0.08700
O977        O  0.00967236  0.06154950  0.67541167    -0.40200
O978        O  0.97260637  0.06320126  0.68401655    -0.39300
O979        O  0.98809144  0.11855165  0.82474430    -0.39300
O980        O  0.02479277  0.11048936  0.82619212    -0.37000
O981        O  0.94554382  0.19214040  0.75266201    -0.38000
O982        O  0.95025818  0.17988023  0.70421137    -0.34100
O983        O  0.05412576  0.13201287  0.74180994    -0.35500
O984        O  0.05305519  0.14436048  0.79059366    -0.39800
C985        C  0.10762772  0.98635994  0.78099728    -0.13500
C986        C  0.11895845  0.99443646  0.75373160     0.16900
C987        C  0.10552426  0.00146714  0.72749013     0.03200
C988        C  0.08134821  0.00040217  0.72898414    -0.12000
C989        C  0.06994312  0.99276120  0.75649836    -0.03100
C990        C  0.08344563  0.98569143  0.78276959     0.02400
C991        C  0.14472205  0.99422781  0.75264640     0.09300
N992        N  0.11613415  0.01046035  0.69949019     0.65600
H993        H  0.07144309  0.00610782  0.70861230     0.18500
N994        N  0.07302830  0.97691916  0.81102505     0.76100
H995        H  0.11763751  0.98020048  0.80101265     0.10000
C996        C  0.15813984  0.00442217  0.77694715     0.03700
C997        C  0.18228047  0.00240211  0.77647845    -0.05000
C998        C  0.19350268  0.99099278  0.75157654    -0.23400
C999        C  0.18023607  0.98103363  0.72710727     0.13000
C1000       C  0.15605914  0.98244560  0.72802089    -0.12500
N1001       N  0.14756766  0.01783061  0.80140701     0.64700
H1002       H  0.19237306  0.01051538  0.79507394     0.12500
N1003       N  0.19104094  0.96863751  0.70186454     0.61300
H1004       H  0.14609393  0.97390142  0.70969257     0.08700
O1005       O  0.06869842  0.99054016  0.83360147    -0.40200
O1006       O  0.07346548  0.95550871  0.81626403    -0.39300
O1007       O  0.11533524  0.99902129  0.67402994    -0.39300
O1008       O  0.12220662  0.03135523  0.69869733    -0.37000
O1009       O  0.19214197  0.97756287  0.67460552    -0.38000
O1010       O  0.19522947  0.94742313  0.70520002    -0.34100
O1011       O  0.14820280  0.01088305  0.82977499    -0.35500
O1012       O  0.14133986  0.03824515  0.79556038    -0.39800
C1013       C  0.06218477  0.71826707  0.66587473    -0.13500
C1014       C  0.04950391  0.70486089  0.64416297     0.16900
C1015       C  0.02524430  0.70405187  0.64690567     0.03200
C1016       C  0.01422647  0.71567630  0.67173682    -0.12000
C1017       C  0.02686864  0.72869333  0.69376021    -0.03100
C1018       C  0.05106147  0.73023348  0.69052828     0.02400
C1019       C  0.06188505  0.69012061  0.62079759     0.09300
N1020       N  0.01151223  0.69188821  0.62421397     0.65600
H1021       H  0.99557559  0.71469874  0.67367051     0.18500
N1022       N  0.06467456  0.74237153  0.71338522     0.76100
H1023       H  0.08086804  0.71870050  0.66443594     0.10000
C1024       C  0.07642522  0.69963270  0.59739264     0.03700
C1025       C  0.08842728  0.68510081  0.57653671    -0.05000
C1026       C  0.08610922  0.66101629  0.57832923    -0.23400
C1027       C  0.07164366  0.65146992  0.60183946     0.13000
C1028       C  0.05969811  0.66602348  0.62277604    -0.12500
N1029       N  0.07836425  0.72403259  0.59360878     0.64700
H1030       H  0.09924491  0.69265692  0.55830702     0.12500
N1031       N  0.06856259  0.62708608  0.60435204     0.61300
H1032       H  0.04876174  0.65845745  0.64086297     0.08700
O1033       O  0.07346721  0.76158043  0.70615688    -0.40200
O1034       O  0.07165443  0.73194718  0.73787103    -0.39300
O1035       O  0.00067576  0.67401203  0.63259502    -0.39300
O1036       O  0.00641732  0.70155163  0.59830528    -0.37000
O1037       O  0.05013775  0.61802575  0.59427062    -0.38000
O1038       O  0.08164000  0.61562722  0.62239326    -0.34100
O1039       O  0.09620136  0.73428942  0.60349958    -0.35500
O1040       O  0.06469958  0.73438256  0.57512022    -0.39800
C1041       C  0.93464244  0.66256796  0.85487948    -0.13500
C1042       C  0.93471803  0.68678024  0.85478851     0.16900
C1043       C  0.92279247  0.69868144  0.87902112     0.03200
C1044       C  0.91218386  0.68630141  0.90352511    -0.12000
C1045       C  0.91333803  0.66216056  0.90450057    -0.03100
C1046       C  0.92435115  0.65023295  0.87959448     0.02400
C1047       C  0.94762899  0.69914972  0.82952249     0.09300
N1048       N  0.92185873  0.72330651  0.87964620     0.65600
H1049       H  0.90334212  0.69558157  0.92224628     0.18500
N1050       N  0.92584743  0.62562709  0.87958546     0.76100
H1051       H  0.94299596  0.65314024  0.83589156     0.10000
C1052       C  0.97080454  0.69343165  0.82246953     0.03700
C1053       C  0.98246119  0.70504117  0.79823869    -0.05000
C1054       C  0.97169615  0.72279169  0.78132305    -0.23400
C1055       C  0.94840598  0.72817844  0.78761800     0.13000
C1056       C  0.93653825  0.71623587  0.81146947    -0.12500
N1057       N  0.98315360  0.67673504  0.84080420     0.64700
H1058       H  0.00046678  0.70103421  0.79383406     0.12500
N1059       N  0.93634152  0.74497221  0.76906894     0.61300
H1060       H  0.91847084  0.72006009  0.81551318     0.08700
O1061       O  0.91301657  0.61409932  0.86126020    -0.40200
O1062       O  0.94304769  0.61599921  0.89233783    -0.39300
O1063       O  0.90304153  0.73341338  0.87370854    -0.39300
O1064       O  0.93835170  0.73454930  0.89167984    -0.37000
O1065       O  0.93164713  0.74065786  0.74041937    -0.38000
O1066       O  0.92681894  0.76191225  0.78253813    -0.34100
O1067       O  0.99083164  0.65877038  0.82760775    -0.35500
O1068       O  0.98936871  0.68155829  0.86874229    -0.39800
C1069       C  0.00853905  0.88397186  0.78005749    -0.13500
C1070       C  0.99659034  0.87299036  0.75535397     0.16900
C1071       C  0.98377848  0.88632654  0.73367187     0.03200
C1072       C  0.98469779  0.91037816  0.73544614    -0.12000
C1073       C  0.99704332  0.92148657  0.75974227    -0.03100
C1074       C  0.00846240  0.90803510  0.78283327     0.02400
C1075       C  0.99781777  0.84761139  0.75268003     0.09300
N1076       N  0.96860458  0.87572814  0.71116605     0.65600
H1077       H  0.97510027  0.92045385  0.71824656     0.18500
N1078       N  0.02078884  0.91844889  0.80847411     0.76100
H1079       H  0.01807713  0.87378135  0.79719519     0.10000
C1080       C  0.00869902  0.83678553  0.72676874     0.03700
C1081       C  0.00984295  0.81269275  0.72539835    -0.05000
C1082       C  0.00050728  0.79894184  0.74970251    -0.23400
C1083       C  0.99007592  0.81003977  0.77609878     0.13000
C1084       C  0.98874047  0.83411085  0.77715050    -0.12500
N1085       N  0.01947413  0.85001449  0.70228251     0.64700
H1086       H  0.01809480  0.80477459  0.70507048     0.12500
N1087       N  0.98130205  0.79734685  0.80255270     0.61300
H1088       H  0.98070587  0.84236358  0.79741836     0.08700
O1089       O  0.04257138  0.91820268  0.80821952    -0.40200
O1090       O  0.01036113  0.92245152  0.83417721    -0.39300
O1091       O  0.95027653  0.86629685  0.72090616    -0.39300
O1092       O  0.97064346  0.88035779  0.68204058    -0.37000
O1093       O  0.99480404  0.79199232  0.82489283    -0.38000
O1094       O  0.95977781  0.79649079  0.80709540    -0.34100
O1095       O  0.03974787  0.85743421  0.70645955    -0.35500
O1096       O  0.01114018  0.84966235  0.67460460    -0.39800
C1097       C  0.77412135  0.52634518  0.85351784    -0.13500
C1098       C  0.79450880  0.53781140  0.84462646     0.16900
C1099       C  0.80165167  0.53678573  0.81261633     0.03200
C1100       C  0.78815234  0.52504161  0.79031076    -0.12000
C1101       C  0.76731837  0.51435963  0.79898672    -0.03100
C1102       C  0.76042682  0.51487077  0.83109623     0.02400
C1103       C  0.80818354  0.55028726  0.86917627     0.09300
N1104       N  0.82215728  0.54818024  0.80205417     0.65600
H1105       H  0.79375093  0.52484959  0.76577033     0.18500
N1106       N  0.74026447  0.50290463  0.84169854     0.76100
H1107       H  0.76895952  0.52591162  0.87821008     0.10000
C1108       C  0.79747314  0.56575155  0.89057643     0.03700
C1109       C  0.81058686  0.57672264  0.91397049    -0.05000
C1110       C  0.83436656  0.57296748  0.91615435    -0.23400
C1111       C  0.84520749  0.55759857  0.89514722     0.13000
C1112       C  0.83206084  0.54615780  0.87210043    -0.12500
N1113       N  0.77346743  0.57122174  0.88813454     0.64700
H1114       H  0.80231477  0.58883986  0.92991334     0.12500
N1115       N  0.86952987  0.55354931  0.89707205     0.61300
H1116       H  0.84050494  0.53379091  0.85676736     0.08700
O1117       O  0.72382324  0.51414676  0.85378550    -0.40200
O1118       O  0.74109399  0.48134007  0.84555753    -0.39300
O1119       O  0.83930007  0.53632786  0.79335232    -0.39300
O1120       O  0.82139065  0.56933648  0.79514746    -0.37000
O1121       O  0.87776196  0.54240509  0.92018351    -0.38000
O1122       O  0.88298885  0.56345745  0.87787067    -0.34100
O1123       O  0.75991251  0.56549644  0.91022077    -0.35500
O1124       O  0.76680819  0.58549117  0.86746289    -0.39800
C1125       C  0.82466772  0.44521368  0.61629512    -0.13500
C1126       C  0.80445249  0.43467212  0.62769972     0.16900
C1127       C  0.79722046  0.41358485  0.61420222     0.03200
C1128       C  0.81021160  0.40345138  0.58987361    -0.12000
C1129       C  0.83071710  0.41371265  0.57915777    -0.03100
C1130       C  0.83793164  0.43478816  0.59249600     0.02400
C1131       C  0.79090799  0.44622774  0.65309495     0.09300
N1132       N  0.77738361  0.40170125  0.62602123     0.54000
H1133       H  0.80465247  0.38713645  0.57988364     0.18500
N1134       N  0.85881430  0.44563481  0.58232514     0.76100
H1135       H  0.83022073  0.46161648  0.62597966     0.10000
C1136       C  0.80106763  0.45204390  0.68242942     0.03700
C1137       C  0.78821158  0.46384840  0.70532283    -0.05000
C1138       C  0.76514795  0.47035016  0.69972886    -0.23400
C1139       C  0.75509629  0.46486496  0.67003986     0.13000
C1140       C  0.76794782  0.45276065  0.64722917    -0.12500
N1141       N  0.82437737  0.44578797  0.68957117     0.64700
H1142       H  0.79641775  0.46771537  0.72782795     0.12500
N1143       N  0.73246645  0.47266963  0.66181071     0.61300
H1144       H  0.76017438  0.44909036  0.62437183     0.08700
O1145       O  0.87743854  0.44138174  0.59675107    -0.40200
O1146       O  0.85789027  0.46246328  0.56338303    -0.39300
O1147       O  0.75906661  0.40132677  0.60977194    -0.39300
O1148       O  0.77962837  0.38790700  0.64897832    -0.37000
O1149       O  0.73008624  0.49191503  0.64821451    -0.38000
O1150       O  0.71575460  0.45869240  0.66231970    -0.34100
O1151       O  0.83984872  0.46113461  0.68979274    -0.35500
O1152       O  0.82848833  0.42641638  0.70197563    -0.39800
C1153       C  0.55597174  0.16543438  0.88264959    -0.13500
C1154       C  0.56205640  0.18791870  0.87347182     0.16900
C1155       C  0.58097417  0.19885432  0.88850403     0.03200
C1156       C  0.59339624  0.18718628  0.91204767    -0.12000
C1157       C  0.58728479  0.16473596  0.92089460    -0.03100
C1158       C  0.56847972  0.15379484  0.90606985     0.02400
C1159       C  0.54747197  0.20014549  0.84986839     0.09300
N1160       N  0.58789518  0.22169273  0.87997398     0.65600
H1161       H  0.60790406  0.19563147  0.92346192     0.18500
N1162       N  0.56157886  0.13109221  0.91522454     0.76100
H1163       H  0.54105210  0.15707987  0.87219640     0.10000
C1164       C  0.54211705  0.19026768  0.82013429     0.03700
C1165       C  0.52729004  0.20178386  0.79921636    -0.05000
C1166       C  0.51771138  0.22325076  0.80716935    -0.23400
C1167       C  0.52259805  0.23284391  0.83728113     0.13000
C1168       C  0.53734704  0.22125040  0.85821831    -0.12500
N1169       N  0.55214939  0.16888997  0.81041252     0.64700
H1170       H  0.52388821  0.19420408  0.77616559     0.12500
N1171       N  0.51174553  0.25364316  0.84773209     0.61300
H1172       H  0.54030606  0.22845384  0.88159441     0.08700
O1173       O  0.56696314  0.11409436  0.89807240    -0.40200
O1174       O  0.54712396  0.12848454  0.93733239    -0.39300
O1175       O  0.58390124  0.23816732  0.89875740    -0.39300
O1176       O  0.60206859  0.22453122  0.85758335    -0.37000
O1177       O  0.49085436  0.25313049  0.85623064    -0.38000
O1178       O  0.52401404  0.27087013  0.85491427    -0.34100
O1179       O  0.53960347  0.15115336  0.80816224    -0.35500
O1180       O  0.57208970  0.16877970  0.79835344    -0.39800
C1181       C  0.44991598  0.18751481  0.69006925    -0.13500
C1182       C  0.44436412  0.19931405  0.66201311     0.16900
C1183       C  0.44941901  0.22298385  0.65974261     0.03200
C1184       C  0.46046721  0.23431104  0.68484748    -0.12000
C1185       C  0.46654662  0.22257366  0.71289444    -0.03100
C1186       C  0.46062389  0.19892178  0.71558273     0.02400
C1187       C  0.43264293  0.18696153  0.63563309     0.09300
N1188       N  0.44402931  0.23563303  0.63160545     0.65600
H1189       H  0.46466205  0.25239763  0.68193829     0.18500
N1190       N  0.46434221  0.18645758  0.74440374     0.76100
H1191       H  0.44545241  0.16943932  0.69242229     0.10000
C1192       C  0.44374813  0.16906095  0.61890650     0.03700
C1193       C  0.43225530  0.15780364  0.59401082    -0.05000
C1194       C  0.40961469  0.16392249  0.58571129    -0.23400
C1195       C  0.39834132  0.18152042  0.60276164     0.13000
C1196       C  0.40995811  0.19303190  0.62731729    -0.12500
N1197       N  0.46685625  0.16246397  0.62657223     0.64700
H1198       H  0.44098331  0.14419078  0.58112082     0.12500
N1199       N  0.37502884  0.18768447  0.59553646     0.61300
H1200       H  0.40111212  0.20651427  0.64031573     0.08700
O1201       O  0.47984174  0.17119404  0.74562763    -0.40200
O1202       O  0.44953142  0.18763563  0.76630411    -0.39300
O1203       O  0.42681544  0.24896781  0.63131925    -0.39300
O1204       O  0.45854290  0.23655471  0.60932268    -0.37000
O1205       O  0.37084895  0.20648619  0.58160518    -0.38000
O1206       O  0.35861573  0.17624621  0.60740115    -0.34100
O1207       O  0.47051187  0.14366437  0.64079049    -0.35500
O1208       O  0.48359935  0.17347060  0.61482195    -0.39800
C1209       C  0.19571234  0.44398554  0.81340806    -0.13500
C1210       C  0.20464170  0.44218145  0.84431700     0.16900
C1211       C  0.22631404  0.45217061  0.85111500     0.03200
C1212       C  0.23826095  0.46414425  0.82749046    -0.12000
C1213       C  0.22903842  0.46665641  0.79684013    -0.03100
C1214       C  0.20761994  0.45612096  0.78973900     0.02400
C1215       C  0.19150559  0.42928406  0.86889052     0.09300
N1216       N  0.23608829  0.45107558  0.88223654     0.65600
H1217       H  0.25461541  0.47211418  0.83358576     0.18500
N1218       N  0.19815506  0.45673574  0.75840542     0.76100
H1219       H  0.17952808  0.43563844  0.80746323     0.10000
C1220       C  0.16832878  0.43479914  0.87609840     0.03700
C1221       C  0.15646393  0.42225174  0.89934291    -0.05000
C1222       C  0.16735443  0.40432304  0.91583452    -0.23400
C1223       C  0.19033509  0.39855612  0.90844911     0.13000
C1224       C  0.20216295  0.41091842  0.88498428    -0.12500
N1225       N  0.15688930  0.45363111  0.86087862     0.64700
H1226       H  0.13880524  0.42683597  0.90507399     0.12500
N1227       N  0.20176862  0.38009675  0.92447154     0.61300
H1228       H  0.21969746  0.40601139  0.87912411     0.08700
O1229       O  0.18181459  0.47040007  0.75216896    -0.40200
O1230       O  0.20301597  0.44084910  0.73906612    -0.39300
O1231       O  0.25332431  0.43825866  0.88722392    -0.39300
O1232       O  0.23093742  0.46637070  0.90231181    -0.37000
O1233       O  0.20001299  0.35982092  0.91386151    -0.38000
O1234       O  0.21662584  0.38453893  0.94553777    -0.34100
O1235       O  0.14140717  0.44964197  0.84049393    -0.35500
O1236       O  0.15904214  0.47371333  0.87203472    -0.39800
C1237       C  0.20637622  0.55994523  0.60223399    -0.13500
C1238       C  0.19368109  0.55021381  0.62716249     0.16900
C1239       C  0.16953303  0.55320086  0.62811120     0.03200
C1240       C  0.15844499  0.56524603  0.60371720    -0.12000
C1241       C  0.17113437  0.57529860  0.57894969    -0.03100
C1242       C  0.19540486  0.57273419  0.57845436     0.02400
C1243       C  0.20622846  0.53852492  0.65309880     0.09300
N1244       N  0.15628109  0.54555773  0.65472194     0.65600
H1245       H  0.13984333  0.56730119  0.60451004     0.18500
N1246       N  0.20919089  0.58360313  0.55461170     0.76100
H1247       H  0.22500745  0.55810867  0.60174122     0.10000
C1248       C  0.20360300  0.51476890  0.65914139     0.03700
C1249       C  0.21526105  0.50472816  0.68477846    -0.05000
C1250       C  0.23016335  0.51786168  0.70389739    -0.23400
C1251       C  0.23311201  0.54153101  0.69738697     0.13000
C1252       C  0.22111878  0.55162656  0.67213601    -0.12500
N1253       N  0.19039927  0.50040500  0.63833697     0.64700
H1254       H  0.21328518  0.48640284  0.68912094     0.12500
N1255       N  0.24729259  0.55580399  0.71703248     0.61300
H1256       H  0.22309567  0.56993796  0.66768684     0.08700
O1257       O  0.21437791  0.60463037  0.55759721    -0.40200
O1258       O  0.22027300  0.57133302  0.53513190    -0.39300
O1259       O  0.15623159  0.55751111  0.67975430    -0.39300
O1260       O  0.14089963  0.53038482  0.65084326    -0.37000
O1261       O  0.24018470  0.56147057  0.74423923    -0.38000
O1262       O  0.26379232  0.56685248  0.70472356    -0.34100
O1263       O  0.19925403  0.49381574  0.61252597    -0.35500
O1264       O  0.17264198  0.49027374  0.64868640    -0.39800
C1265       C  0.60534817  0.48709140  0.72871010    -0.13500
C1266       C  0.61765066  0.48685820  0.75738234     0.16900
C1267       C  0.60530869  0.48736199  0.78619979     0.03200
C1268       C  0.58113833  0.48805372  0.78586789    -0.12000
C1269       C  0.56867749  0.48841651  0.75716750    -0.03100
C1270       C  0.58116364  0.48777848  0.72828239     0.02400
C1271       C  0.64328895  0.48775396  0.75660707     0.09300
N1272       N  0.61704360  0.48702275  0.81606060     0.65600
H1273       H  0.57213504  0.48843294  0.80839229     0.18500
N1274       N  0.56972655  0.48815670  0.69822720     0.76100
H1275       H  0.61460201  0.48734599  0.70637800     0.10000
C1276       C  0.65640943  0.47109670  0.74020575     0.03700
C1277       C  0.68045258  0.47333173  0.73841036    -0.05000
C1278       C  0.69194705  0.49204215  0.75259513    -0.23400
C1279       C  0.67871753  0.50893660  0.76857567     0.13000
C1280       C  0.65467182  0.50656761  0.77053298    -0.12500
N1281       N  0.64563825  0.45157085  0.72569908     0.64700
H1282       H  0.69019364  0.46008592  0.72618696     0.12500
N1283       N  0.68912653  0.52937038  0.78109115     0.61300
H1284       H  0.64472757  0.52002537  0.78197176     0.08700
O1285       O  0.56692453  0.46956284  0.68313633    -0.40200
O1286       O  0.56681954  0.50714551  0.68415560    -0.39300
O1287       O  0.61929630  0.50553740  0.83150823    -0.39300
O1288       O  0.62022444  0.46801065  0.82994945    -0.37000
O1289       O  0.69387043  0.54578138  0.76253260    -0.38000
O1290       O  0.68855768  0.53305600  0.81059165    -0.34100
O1291       O  0.64264182  0.45137128  0.69602955    -0.35500
O1292       O  0.64421220  0.43291645  0.74098689    -0.39800
C1293       C  0.48948763  0.38315240  0.72855248    -0.13500
C1294       C  0.49397717  0.37076739  0.75650096     0.16900
C1295       C  0.49944692  0.38305039  0.78441915     0.03200
C1296       C  0.50001293  0.40715068  0.78409970    -0.12000
C1297       C  0.49532084  0.41968418  0.75630290    -0.03100
C1298       C  0.49010770  0.40733573  0.72813758     0.02400
C1299       C  0.49403485  0.34510376  0.75586754     0.09300
N1300       N  0.50415743  0.37131783  0.81353783     0.65600
H1301       H  0.50415955  0.41607051  0.80597601     0.18500
N1302       N  0.48544311  0.41891164  0.69887093     0.76100
H1303       H  0.48591969  0.37398916  0.70667845     0.10000
C1304       C  0.47509956  0.33235775  0.74408248     0.03700
C1305       C  0.47582704  0.30822705  0.74408087    -0.05000
C1306       C  0.49507593  0.29627051  0.75595622    -0.23400
C1307       C  0.51436630  0.30904097  0.76674425     0.13000
C1308       C  0.51366763  0.33318568  0.76649145    -0.12500
N1309       N  0.45458600  0.34359584  0.73328250     0.64700
H1310       H  0.46082955  0.29880437  0.73572966     0.12500
N1311       N  0.53518475  0.29789717  0.77667506     0.61300
H1312       H  0.52878747  0.34270798  0.77414311     0.08700
O1313       O  0.46496393  0.41992908  0.68867358    -0.40200
O1314       O  0.50192978  0.42361322  0.68038782    -0.39300
O1315       O  0.52440309  0.37145121  0.82468216    -0.39300
O1316       O  0.48759914  0.36491089  0.83087779    -0.37000
O1317       O  0.54850567  0.28942922  0.75605367    -0.38000
O1318       O  0.54256677  0.30096576  0.80454747    -0.34100
O1319       O  0.44940304  0.34298071  0.70419291    -0.35500
O1320       O  0.43957988  0.34981790  0.75321169    -0.39800
C1321       C  0.38942073  0.49806054  0.79355749    -0.13500
C1322       C  0.37729983  0.49453014  0.76511893     0.16900
C1323       C  0.38976517  0.49018657  0.73704874     0.03200
C1324       C  0.41386435  0.48962115  0.73772523    -0.12000
C1325       C  0.42615044  0.49301948  0.76611863    -0.03100
C1326       C  0.41361151  0.49716319  0.79439249     0.02400
C1327       C  0.35173697  0.49621049  0.76466618     0.09300
N1328       N  0.37816233  0.48565886  0.70774385     0.65600
H1329       H  0.42296124  0.48613638  0.71578015     0.18500
N1330       N  0.42504704  0.50099389  0.82400335     0.76100
H1331       H  0.38007461  0.50188132  0.81518915     0.10000
C1332       C  0.33784860  0.48231045  0.78428588     0.03700
C1333       C  0.31379188  0.48353593  0.78187060    -0.05000
C1334       C  0.30292296  0.49855093  0.76017534    -0.23400
C1335       C  0.31700900  0.51339367  0.74179922     0.13000
C1336       C  0.34110239  0.51205086  0.74421852    -0.12500
N1337       N  0.34787886  0.46623689  0.80600344     0.64700
H1338       H  0.30366243  0.47211703  0.79670707     0.12500
N1339       N  0.30736157  0.53040387  0.72121999     0.61300
H1340       H  0.35162018  0.52353578  0.72997501     0.08700
O1341       O  0.42712428  0.48455430  0.84341999    -0.40200
O1342       O  0.42888339  0.52136016  0.83316722    -0.39300
O1343       O  0.37866685  0.50053541  0.68589559    -0.39300
O1344       O  0.37162433  0.46539540  0.70150431    -0.37000
O1345       O  0.30646150  0.55105214  0.73058104    -0.38000
O1346       O  0.30559689  0.52612485  0.69195074    -0.34100
O1347       O  0.34755565  0.47051706  0.83536854    -0.35500
O1348       O  0.35281160  0.44617241  0.79663081    -0.39800
C1349       C  0.46437742  0.79543937  0.82210989    -0.13500
C1350       C  0.46208038  0.78561417  0.85235793     0.16900
C1351       C  0.47077691  0.76324188  0.85771671     0.03200
C1352       C  0.48117837  0.75102656  0.83288648    -0.12000
C1353       C  0.48333407  0.76072536  0.80246044    -0.03100
C1354       C  0.47486218  0.78330054  0.79725197     0.02400
C1355       C  0.44870435  0.79811936  0.87701423     0.09300
N1356       N  0.46956265  0.75285420  0.88842646     0.65600
H1357       H  0.48786530  0.73391914  0.83763868     0.18500
N1358       N  0.47542158  0.79365427  0.76647795     0.76100
H1359       H  0.45715872  0.81233211  0.81738681     0.10000
C1360       C  0.45461571  0.82072262  0.88648363     0.03700
C1361       C  0.44061634  0.83255713  0.90811030    -0.05000
C1362       C  0.42074765  0.82222001  0.92068628    -0.23400
C1363       C  0.41472875  0.79970344  0.91122189     0.13000
C1364       C  0.42866289  0.78788581  0.88947647    -0.12500
N1365       N  0.47504096  0.83169043  0.87488655     0.64700
H1366       H  0.44544983  0.84979306  0.91555897     0.12500
N1367       N  0.39438485  0.78877425  0.92317794     0.61300
H1368       H  0.42353234  0.77080447  0.88176959     0.08700
O1369       O  0.45963669  0.78910932  0.74676336    -0.40200
O1370       O  0.48897220  0.81027033  0.76118797    -0.39300
O1371       O  0.45580651  0.73631375  0.89312990    -0.39300
O1372       O  0.48521893  0.75698404  0.90849881    -0.37000
O1373       O  0.39617179  0.77370743  0.94463747    -0.38000
O1374       O  0.37568381  0.79052055  0.90795690    -0.34100
O1375       O  0.47330439  0.84811440  0.85538415    -0.35500
O1376       O  0.49402186  0.82829143  0.88886283    -0.39800
C1377       C  0.54582607  0.76038390  0.65121704    -0.13500
C1378       C  0.55364733  0.78281322  0.65753498     0.16900
C1379       C  0.54861179  0.79290917  0.68714125     0.03200
C1380       C  0.53627456  0.78040573  0.70985433    -0.12000
C1381       C  0.52860793  0.75778666  0.70381612    -0.03100
C1382       C  0.53332581  0.74783527  0.67385084     0.02400
C1383       C  0.56575106  0.79581744  0.63221556     0.09300
N1384       N  0.55627632  0.81569300  0.69478309     0.65600
H1385       H  0.53304309  0.78843842  0.73264139     0.18500
N1386       N  0.52447021  0.72568430  0.66513502     0.76100
H1387       H  0.54868626  0.75285115  0.62801956     0.10000
C1388       C  0.58524807  0.78657378  0.61663034     0.03700
C1389       C  0.59557251  0.79878167  0.59181643    -0.05000
C1390       C  0.58704674  0.82033638  0.58259733    -0.23400
C1391       C  0.56754736  0.82958378  0.59785891     0.13000
C1392       C  0.55692266  0.81720628  0.62230383    -0.12500
N1393       N  0.59519531  0.76517085  0.62639197     0.64700
H1394       H  0.61068395  0.79171232  0.58017944     0.12500
N1395       N  0.55835199  0.85144647  0.58862614     0.61300
H1396       H  0.54154065  0.82419905  0.63329401     0.08700
O1397       O  0.53801760  0.71068312  0.65401757    -0.40200
O1398       O  0.50297648  0.72311312  0.66152638    -0.39300
O1399       O  0.54172338  0.83181761  0.69687478    -0.39300
O1400       O  0.57643391  0.81867703  0.70544001    -0.37000
O1401       O  0.54284978  0.85240401  0.56759416    -0.38000
O1402       O  0.56279406  0.86910679  0.60503619    -0.34100
O1403       O  0.59345804  0.74772704  0.60863443    -0.35500
O1404       O  0.60937739  0.76490514  0.64914643    -0.39800
C1405       C  0.51867012  0.64679410  0.74567399    -0.13500
C1406       C  0.49947638  0.63669221  0.76053487     0.16900
C1407       C  0.48273028  0.65114932  0.77441955     0.03200
C1408       C  0.48537090  0.67513442  0.77301071    -0.12000
C1409       C  0.50432593  0.68532478  0.75749468    -0.03100
C1410       C  0.52117007  0.67078624  0.74373716     0.02400
C1411       C  0.49772311  0.61109197  0.76173993     0.09300
N1412       N  0.46241277  0.64183414  0.78879083     0.65600
H1413       H  0.47204020  0.68585036  0.78339524     0.18500
N1414       N  0.54133968  0.67988149  0.72869586     0.76100
H1415       H  0.53212255  0.63592978  0.73591809     0.10000
C1416       C  0.50004840  0.59775416  0.73396489     0.03700
C1417       C  0.50039896  0.57373089  0.73586594    -0.05000
C1418       C  0.49798160  0.56220738  0.76503034    -0.23400
C1419       C  0.49508692  0.57555668  0.79289210     0.13000
C1420       C  0.49526488  0.59975545  0.79102894    -0.12500
N1421       N  0.50148606  0.60834108  0.70339269     0.64700
H1422       H  0.50237822  0.56406993  0.71402650     0.12500
N1423       N  0.49153025  0.56497562  0.82312578     0.61300
H1424       H  0.49376623  0.60971925  0.81267446     0.08700
O1425       O  0.54549120  0.67462505  0.70020289    -0.40200
O1426       O  0.55734074  0.68816160  0.74557563    -0.39300
O1427       O  0.46006738  0.64287645  0.81853015    -0.39300
O1428       O  0.44504001  0.63747789  0.77169617    -0.37000
O1429       O  0.50814761  0.56349213  0.84241945    -0.38000
O1430       O  0.47119551  0.56156721  0.83283474    -0.34100
O1431       O  0.52012336  0.60725738  0.68795108    -0.35500
O1432       O  0.48316813  0.61428192  0.68936368    -0.39800
C1433       C  0.22726066  0.45616979  0.14192419    -0.13500
C1434       C  0.20957183  0.44104925  0.15110008     0.16900
C1435       C  0.20515309  0.43757266  0.18354592     0.03200
C1436       C  0.21781947  0.44978766  0.20627229    -0.12000
C1437       C  0.23525377  0.46533041  0.19731227    -0.03100
C1438       C  0.24009153  0.46842326  0.16471826     0.02400
C1439       C  0.19539963  0.42944669  0.12662826     0.09300
N1440       N  0.18823365  0.42123378  0.19375295     0.65600
H1441       H  0.21416687  0.44689041  0.23118668     0.18500
N1442       N  0.25678011  0.48494694  0.15426917     0.76100
H1443       H  0.23059782  0.45900400  0.11691887     0.10000
C1444       C  0.17330517  0.43783505  0.11852594     0.03700
C1445       C  0.15995066  0.42618440  0.09588278    -0.05000
C1446       C  0.16847372  0.40639459  0.08087412    -0.23400
C1447       C  0.19059490  0.39808941  0.08877470     0.13000
C1448       C  0.20387200  0.40957586  0.11167598    -0.12500
N1449       N  0.16448653  0.45845669  0.13257725     0.64700
H1450       H  0.14301544  0.43274017  0.08965619     0.12500
N1451       N  0.19957808  0.37787092  0.07385411     0.61300
H1452       H  0.22080603  0.40299323  0.11785030     0.08700
O1453       O  0.25280342  0.50616411  0.15808234    -0.40200
O1454       O  0.27251510  0.47879166  0.13537828    -0.39300
O1455       O  0.19435106  0.40082691  0.19985162    -0.39300
O1456       O  0.16865182  0.42817743  0.20271420    -0.37000
O1457       O  0.19686360  0.35844018  0.08680465    -0.38000
O1458       O  0.20774105  0.37905883  0.04614363    -0.34100
O1459       O  0.16947868  0.47772853  0.12047631    -0.35500
O1460       O  0.14841684  0.45721086  0.15271081    -0.39800
C1461       C  0.22304233  0.51788365  0.35229836    -0.13500
C1462       C  0.20372060  0.53076229  0.34268497     0.16900
C1463       C  0.19800744  0.53157035  0.31015299     0.03200
C1464       C  0.21175404  0.51987991  0.28801009    -0.12000
C1465       C  0.23150289  0.50754872  0.29744531    -0.03100
C1466       C  0.23683104  0.50621225  0.33007402     0.02400
C1467       C  0.19063215  0.54414655  0.36682248     0.09300
N1468       N  0.17916327  0.54526009  0.29894020     0.65600
H1469       H  0.20739057  0.52117209  0.26304869     0.18500
N1470       N  0.25536100  0.49210497  0.34118263     0.76100
H1471       H  0.22739909  0.51684417  0.37728118     0.10000
C1472       C  0.16765952  0.53862782  0.37527188     0.03700
C1473       C  0.15616423  0.55178542  0.39836666    -0.05000
C1474       C  0.16736211  0.57013545  0.41366406    -0.23400
C1475       C  0.19026837  0.57556091  0.40537693     0.13000
C1476       C  0.20170200  0.56261879  0.38212853    -0.12500
N1477       N  0.15627019  0.51896730  0.36205612     0.64700
H1478       H  0.13862357  0.54734842  0.40495395     0.12500
N1479       N  0.20207727  0.59419768  0.42052291     0.61300
H1480       H  0.21932944  0.56701546  0.37592406     0.08700
O1481       O  0.25136304  0.47139964  0.34861403    -0.40200
O1482       O  0.27401894  0.50141229  0.34991572    -0.39300
O1483       O  0.18200486  0.56667961  0.29534632    -0.39300
O1484       O  0.16225029  0.53552025  0.28557360    -0.37000
O1485       O  0.21426341  0.59041775  0.44481111    -0.38000
O1486       O  0.19836873  0.61466914  0.41174624    -0.34100
O1487       O  0.16017979  0.49930484  0.37370859    -0.35500
O1488       O  0.13871123  0.52180872  0.34472836    -0.39800
C1489       C  0.44238161  0.76647402  0.16977359    -0.13500
C1490       C  0.45509969  0.78417870  0.15519344     0.16900
C1491       C  0.47758771  0.78908386  0.16636929     0.03200
C1492       C  0.48654145  0.77690139  0.19232230    -0.12000
C1493       C  0.47379961  0.75920691  0.20674836    -0.03100
C1494       C  0.45167108  0.75376420  0.19497476     0.02400
C1495       C  0.44394038  0.79835842  0.13006753     0.09300
N1496       N  0.49191855  0.80562915  0.15072097     0.65600
H1497       H  0.50387506  0.78074301  0.20053705     0.18500
N1498       N  0.43801904  0.73606545  0.20929478     0.76100
H1499       H  0.42490105  0.76282518  0.16206249     0.10000
C1500       C  0.43312718  0.78812743  0.10354052     0.03700
C1501       C  0.42125647  0.80187692  0.08167759    -0.05000
C1502       C  0.42056452  0.82597446  0.08488411    -0.23400
C1503       C  0.43137105  0.83626042  0.11142407     0.13000
C1504       C  0.44264474  0.82239858  0.13387491    -0.12500
N1505       N  0.43480580  0.76389706  0.09777174     0.64700
H1506       H  0.41297501  0.79371591  0.06150265     0.12500
N1507       N  0.43138307  0.86071613  0.11570142     0.61300
H1508       H  0.45035090  0.83048714  0.15450880     0.08700
O1509       O  0.43565351  0.71691475  0.19543424    -0.40200
O1510       O  0.42540191  0.74083922  0.23279143    -0.39300
O1511       O  0.49713777  0.82416600  0.16469334    -0.39300
O1512       O  0.50301363  0.79971243  0.12627676    -0.37000
O1513       O  0.44713093  0.87260687  0.10302810    -0.38000
O1514       O  0.41938003  0.86946783  0.13759491    -0.34100
O1515       O  0.41698306  0.75144650  0.09987404    -0.35500
O1516       O  0.45258307  0.75598929  0.08432499    -0.39800
C1517       C  0.57449129  0.78350298  0.39366403    -0.13500
C1518       C  0.56196244  0.79530141  0.37019417     0.16900
C1519       C  0.56170398  0.81965558  0.37064107     0.03200
C1520       C  0.57368493  0.83167000  0.39436708    -0.12000
C1521       C  0.58636848  0.81987671  0.41764105    -0.03100
C1522       C  0.58681338  0.79552774  0.41706670     0.02400
C1523       C  0.54810511  0.78197494  0.34672297     0.09300
N1524       N  0.54975406  0.83243635  0.34673021     0.65600
H1525       H  0.57320177  0.85035542  0.39455615     0.18500
N1526       N  0.59981722  0.78279164  0.43997341     0.76100
H1527       H  0.57452876  0.76482135  0.39404209     0.10000
C1528       C  0.55808078  0.76457682  0.32767236     0.03700
C1529       C  0.54423057  0.75189656  0.30665086    -0.05000
C1530       C  0.52054332  0.75646434  0.30386296    -0.23400
C1531       C  0.51045763  0.77343726  0.32328359     0.13000
C1532       C  0.52421911  0.78595829  0.34454533    -0.12500
N1533       N  0.58237814  0.76025672  0.32839569     0.64700
H1534       H  0.55217747  0.73899243  0.29159041     0.12500
N1535       N  0.48607853  0.77727149  0.32282193     0.61300
H1536       H  0.51610807  0.79853947  0.35992499     0.08700
O1537       O  0.58938497  0.77150167  0.46118734    -0.40200
O1538       O  0.62098979  0.77905464  0.43513314    -0.39300
O1539       O  0.53152170  0.84319653  0.35375437    -0.39300
O1540       O  0.55950113  0.83629369  0.32048938    -0.37000
O1541       O  0.47293337  0.76388962  0.33804645    -0.38000
O1542       O  0.47814966  0.79588305  0.31179215    -0.34100
O1543       O  0.58981103  0.74166877  0.34015045    -0.35500
O1544       O  0.59572044  0.77257801  0.31186906    -0.39800
C1545       C  0.80739933  0.52288396  0.16259489    -0.13500
C1546       C  0.80197727  0.54609922  0.15698297     0.16900
C1547       C  0.78280908  0.55592660  0.17277539     0.03200
C1548       C  0.76885240  0.54218425  0.19232828    -0.12000
C1549       C  0.77428853  0.51896113  0.19766195    -0.03100
C1550       C  0.79409274  0.50947484  0.18322925     0.02400
C1551       C  0.81461107  0.55877832  0.13168678     0.09300
N1552       N  0.77776980  0.57997862  0.16998267     0.65600
H1553       H  0.75412312  0.54986065  0.20415687     0.18500
N1554       N  0.80027383  0.48588214  0.18806567     0.76100
H1555       H  0.82156492  0.51481068  0.15005540     0.10000
C1556       C  0.83901537  0.55954906  0.13039089     0.03700
C1557       C  0.85001128  0.57014225  0.10462516    -0.05000
C1558       C  0.83715327  0.58016466  0.08002307    -0.23400
C1559       C  0.81284650  0.57932320  0.08118951     0.13000
C1560       C  0.80184985  0.56852220  0.10670219    -0.12500
N1561       N  0.85289552  0.55000636  0.15519242     0.64700
H1562       H  0.86872049  0.57071225  0.10388458     0.12500
N1563       N  0.79909668  0.58952304  0.05675714     0.61300
H1564       H  0.78316863  0.56743482  0.10669994     0.08700
O1565       O  0.81625187  0.48091699  0.20727589    -0.40200
O1566       O  0.79286229  0.47068167  0.16919418    -0.39300
O1567       O  0.75955385  0.58637817  0.15607794    -0.39300
O1568       O  0.78889509  0.59426583  0.18665444    -0.37000
O1569       O  0.78872605  0.57673475  0.03712557    -0.38000
O1570       O  0.79349990  0.61048868  0.05889490    -0.34100
O1571       O  0.86413420  0.53173785  0.15007680    -0.35500
O1572       O  0.85821511  0.56244420  0.17866157    -0.39800
C1573       C  0.77508472  0.43561832  0.32500336    -0.13500
C1574       C  0.79212144  0.44774986  0.34181676     0.16900
C1575       C  0.79776498  0.47039837  0.33241593     0.03200
C1576       C  0.78644301  0.48038078  0.30649316    -0.12000
C1577       C  0.76929748  0.46827331  0.28976058    -0.03100
C1578       C  0.76366370  0.44559997  0.29911340     0.02400
C1579       C  0.80491531  0.43577902  0.36747000     0.09300
N1580       N  0.81452061  0.48367045  0.34942612     0.65600
H1581       H  0.79078758  0.49790149  0.29977082     0.18500
N1582       N  0.74765955  0.43189139  0.28136648     0.76100
H1583       H  0.77131850  0.41787525  0.33118901     0.10000
C1584       C  0.79325973  0.42540131  0.39314866     0.03700
C1585       C  0.80572128  0.41305149  0.41596193    -0.05000
C1586       C  0.82984646  0.41116624  0.41405373    -0.23400
C1587       C  0.84147529  0.42117580  0.38802966     0.13000
C1588       C  0.82895407  0.43327196  0.36498912    -0.12500
N1589       N  0.76883775  0.42777814  0.39679143     0.64700
H1590       H  0.79657480  0.40520615  0.43563271     0.12500
N1591       N  0.86596877  0.41923130  0.38469611     0.61300
H1592       H  0.83803828  0.44053865  0.34485885     0.08700
O1593       O  0.73219462  0.42067243  0.29576884    -0.40200
O1594       O  0.75194541  0.42718475  0.25272382    -0.39300
O1595       O  0.83373496  0.48813226  0.33669540    -0.39300
O1596       O  0.80848968  0.49454513  0.37399618    -0.37000
O1597       O  0.87886593  0.43440399  0.39684174    -0.38000
O1598       O  0.87419814  0.40557521  0.36431061    -0.34100
O1599       O  0.75579801  0.41078854  0.39129090    -0.35500
O1600       O  0.76079594  0.44532627  0.41060187    -0.39800
C1601       C  0.39462838  0.50176093  0.27579981    -0.13500
C1602       C  0.38285075  0.48583951  0.25644901     0.16900
C1603       C  0.39592306  0.47133524  0.23636707     0.03200
C1604       C  0.42003115  0.47338362  0.23528530    -0.12000
C1605       C  0.43177159  0.48923141  0.25460147    -0.03100
C1606       C  0.41885981  0.50341684  0.27524340     0.02400
C1607       C  0.35702158  0.48605459  0.25516100     0.09300
N1608       N  0.38501403  0.45391756  0.21758795     0.65600
H1609       H  0.42970368  0.46209981  0.21967928     0.18500
N1610       N  0.42995148  0.52055870  0.29429241     0.76100
H1611       H  0.38494405  0.51352516  0.29066910     0.10000
C1612       C  0.34322577  0.48476004  0.28273067     0.03700
C1613       C  0.31902917  0.48631031  0.28036852    -0.05000
C1614       C  0.30799063  0.48852845  0.25073984    -0.23400
C1615       C  0.32189809  0.48975607  0.22318473     0.13000
C1616       C  0.34603105  0.48877257  0.22570807    -0.12500
N1617       N  0.35344269  0.48064396  0.31309465     0.64700
H1618       H  0.30879050  0.48486587  0.30179153     0.12500
N1619       N  0.31195253  0.49267795  0.19240413     0.61300
H1620       H  0.35630355  0.49061043  0.20437847     0.08700
O1621       O  0.43270896  0.51706539  0.32360674    -0.40200
O1622       O  0.43299355  0.54054907  0.28321509    -0.39300
O1623       O  0.38531360  0.45546643  0.18771561    -0.39300
O1624       O  0.37931569  0.43508019  0.23037501    -0.37000
O1625       O  0.30433639  0.51220557  0.18434449    -0.38000
O1626       O  0.31538259  0.47754328  0.17140823    -0.34100
O1627       O  0.35287409  0.49614814  0.33409466    -0.35500
O1628       O  0.35942269  0.46044238  0.32060176    -0.39800
C1629       C  0.50145146  0.64621209  0.27297514    -0.13500
C1630       C  0.50198790  0.63640964  0.24251610     0.16900
C1631       C  0.49956638  0.65090922  0.21582734     0.03200
C1632       C  0.49717859  0.67473403  0.22005550    -0.12000
C1633       C  0.49732192  0.68458143  0.25054158    -0.03100
C1634       C  0.49931359  0.67001325  0.27720329     0.02400
C1635       C  0.50349318  0.61094024  0.23962895     0.09300
N1636       N  0.49997678  0.64182254  0.18428805     0.65600
H1637       H  0.49578055  0.68563519  0.19925006     0.18500
N1638       N  0.49796238  0.67892044  0.30876636     0.76100
H1639       H  0.50209264  0.63524118  0.29376599     0.10000
C1640       C  0.52030807  0.59834547  0.25665260     0.03700
C1641       C  0.51911568  0.57431783  0.25769106    -0.05000
C1642       C  0.50198446  0.56238666  0.24094086    -0.23400
C1643       C  0.48590471  0.57474980  0.22251062     0.13000
C1644       C  0.48648030  0.59889123  0.22249874    -0.12500
N1645       N  0.53894126  0.60969741  0.27257005     0.64700
H1646       H  0.53195465  0.56487692  0.27120310     0.12500
N1647       N  0.46814866  0.56310243  0.20518812     0.61300
H1648       H  0.47307229  0.60821104  0.20998543     0.08700
O1649       O  0.51584303  0.67937326  0.32591032    -0.40200
O1650       O  0.47842616  0.68200641  0.32131949    -0.39300
O1651       O  0.48179226  0.64212611  0.16774101    -0.39300
O1652       O  0.51911475  0.63785843  0.17107314    -0.37000
O1653       O  0.44879836  0.55956393  0.21805954    -0.38000
O1654       O  0.47039717  0.56003754  0.17570398    -0.34100
O1655       O  0.54007140  0.60910588  0.30247259    -0.35500
O1656       O  0.55645213  0.61582003  0.25686882    -0.39800
C1657       C  0.61301970  0.50145862  0.26184963    -0.13500
C1658       C  0.62317391  0.49587376  0.23269117     0.16900
C1659       C  0.60887279  0.48990869  0.20691173     0.03200
C1660       C  0.58477917  0.48975123  0.21065163    -0.12000
C1661       C  0.57444615  0.49504900  0.24002406    -0.03100
C1662       C  0.58899129  0.50105093  0.26581103     0.02400
C1663       C  0.64871702  0.49426645  0.23098884     0.09300
N1664       N  0.61854763  0.48266295  0.17737114     0.65600
H1665       H  0.57416141  0.48479613  0.19058419     0.18500
N1666       N  0.57980030  0.50669806  0.29628541     0.76100
H1667       H  0.62391451  0.50580704  0.28192590     0.10000
C1668       C  0.66236060  0.51112167  0.21588803     0.03700
C1669       C  0.68658118  0.50961544  0.21721754    -0.05000
C1670       C  0.69766847  0.49176063  0.23409625    -0.23400
C1671       C  0.68369623  0.47479181  0.24887143     0.13000
C1672       C  0.65959575  0.47617108  0.24702926    -0.12500
N1673       N  0.65193497  0.53063140  0.20092435     0.64700
H1674       H  0.69669583  0.52305253  0.20598695     0.12500
N1675       N  0.69351416  0.45595688  0.26597466     0.61300
H1676       H  0.64921880  0.46316098  0.25879832     0.08700
O1677       O  0.57644597  0.52756288  0.30341832    -0.40200
O1678       O  0.57971971  0.49162999  0.31789659    -0.39300
O1679       O  0.62175993  0.46144070  0.17244093    -0.39300
O1680       O  0.61870531  0.49643635  0.15419791    -0.37000
O1681       O  0.69449414  0.45692809  0.29587057    -0.38000
O1682       O  0.69573902  0.43673074  0.25229830    -0.34100
O1683       O  0.64699773  0.54812058  0.21739433    -0.35500
O1684       O  0.65228244  0.53230801  0.17107523    -0.39800
C1685       C  0.56278594  0.16746826  0.13178398    -0.13500
C1686       C  0.56210310  0.19166195  0.13046736     0.16900
C1687       C  0.57457184  0.20320564  0.10642853     0.03200
C1688       C  0.58724053  0.19048830  0.08427842    -0.12000
C1689       C  0.58753818  0.16633289  0.08536023    -0.03100
C1690       C  0.57524477  0.15477426  0.10938474     0.02400
C1691       C  0.55005514  0.20441868  0.15607644     0.09300
N1692       N  0.57421175  0.22777859  0.10381835     0.65600
H1693       H  0.59669525  0.19947886  0.06584308     0.18500
N1694       N  0.57520306  0.13016835  0.11120967     0.76100
H1695       H  0.55390499  0.15836957  0.15063021     0.10000
C1696       C  0.52700852  0.19931297  0.16457562     0.03700
C1697       C  0.51718954  0.20972781  0.19133679    -0.05000
C1698       C  0.52974951  0.22573273  0.20933902    -0.23400
C1699       C  0.55258583  0.23118048  0.20053262     0.13000
C1700       C  0.56260378  0.22032831  0.17432882    -0.12500
N1701       N  0.51316068  0.18415364  0.14572114     0.64700
H1702       H  0.49943017  0.20584358  0.19749946     0.12500
N1703       N  0.56625682  0.24670462  0.21903732     0.61300
H1704       H  0.58055238  0.22380717  0.16887033     0.08700
O1705       O  0.55968325  0.11887932  0.09700542    -0.40200
O1706       O  0.58774322  0.12018543  0.13149679    -0.39300
O1707       O  0.59217957  0.23916218  0.11040557    -0.39300
O1708       O  0.55812883  0.23736093  0.08849888    -0.37000
O1709       O  0.57730970  0.23913320  0.24266166    -0.38000
O1710       O  0.57087301  0.26649390  0.20831131    -0.34100
O1711       O  0.50675762  0.16503051  0.15699754    -0.35500
O1712       O  0.50374860  0.19168476  0.12076644    -0.39800
C1713       C  0.46934363  0.21451290  0.35927152    -0.13500
C1714       C  0.45585127  0.19609782  0.34829770     0.16900
C1715       C  0.45526417  0.19115926  0.31561885     0.03200
C1716       C  0.46846620  0.20440041  0.29452170    -0.12000
C1717       C  0.48196361  0.22296661  0.30540068    -0.03100
C1718       C  0.48229781  0.22800499  0.33818164     0.02400
C1719       C  0.44194900  0.18288010  0.37143060     0.09300
N1720       N  0.44115788  0.17294230  0.30351833     0.65600
H1721       H  0.46783266  0.20039763  0.26940521     0.18500
N1722       N  0.49633246  0.24614714  0.35064506     0.76100
H1723       H  0.46983651  0.21839843  0.38443091     0.10000
C1724       C  0.45211470  0.16582626  0.39074415     0.03700
C1725       C  0.43912872  0.15532183  0.41479726    -0.05000
C1726       C  0.41606623  0.16165730  0.41988522    -0.23400
C1727       C  0.40580396  0.17845065  0.40029116     0.13000
C1728       C  0.41873803  0.18885882  0.37612757    -0.12500
N1729       N  0.47554184  0.15893829  0.38598826     0.64700
H1730       H  0.44698314  0.14211775  0.42945503     0.12500
N1731       N  0.38237752  0.18532789  0.40519176     0.61300
H1732       H  0.41087107  0.20211561  0.36156848     0.08700
O1733       O  0.48679504  0.26319507  0.36381458    -0.40200
O1734       O  0.51758979  0.24261340  0.35514472    -0.39300
O1735       O  0.42163823  0.17759521  0.29181165    -0.39300
O1736       O  0.44986949  0.15328184  0.29896347    -0.37000
O1737       O  0.37704260  0.19703301  0.42934630    -0.38000
O1738       O  0.36673081  0.17808027  0.38685727    -0.34100
O1739       O  0.49127119  0.16743107  0.40313911    -0.35500
O1740       O  0.47989860  0.14164834  0.36882483    -0.39800
C1741       C  0.49300011  0.33584740  0.27620649    -0.13500
C1742       C  0.50791520  0.34681962  0.25486131     0.16900
C1743       C  0.52299068  0.33344218  0.23630401     0.03200
C1744       C  0.52246300  0.30939935  0.23882295    -0.12000
C1745       C  0.50738065  0.29810649  0.26004518    -0.03100
C1746       C  0.49257224  0.31177766  0.27905192     0.02400
C1747       C  0.50783896  0.37228919  0.25326872     0.09300
N1748       N  0.53979781  0.34399708  0.21610391     0.65600
H1749       H  0.53441017  0.29959666  0.22438345     0.18500
N1750       N  0.47686938  0.30176804  0.30124945     0.76100
H1751       H  0.48143977  0.34610480  0.29069310     0.10000
C1752       C  0.50045226  0.38420948  0.22596128     0.03700
C1753       C  0.50000846  0.40832626  0.22602050    -0.05000
C1754       C  0.50636437  0.42101494  0.25313384    -0.23400
C1755       C  0.51376193  0.40892660  0.28046826     0.13000
C1756       C  0.51449432  0.38480278  0.28020679    -0.12500
N1757       N  0.49209569  0.37214416  0.19866018     0.64700
H1758       H  0.49397135  0.41711948  0.20489219     0.12500
N1759       N  0.52086720  0.42074889  0.30857509     0.61300
H1760       H  0.52019655  0.37572579  0.30129692     0.08700
O1761       O  0.47965279  0.30567000  0.33046560    -0.40200
O1762       O  0.45759942  0.29438222  0.29157049    -0.39300
O1763       O  0.55759553  0.35294275  0.22829843    -0.39300
O1764       O  0.53949201  0.33985389  0.18670082    -0.37000
O1765       O  0.50642914  0.42408103  0.33051620    -0.38000
O1766       O  0.54213247  0.42325802  0.31422102    -0.34100
O1767       O  0.47169119  0.36446880  0.19868876    -0.35500
O1768       O  0.50267853  0.37409485  0.17262598    -0.39800
loop_ 
_geom_bond_atom_site_label_1 
_geom_bond_atom_site_label_2 
_geom_bond_distance 
_geom_bond_site_symmetry_2 
_ccdc_geom_bond_type 
C1            N2   1.356       .  A
C1            N6   1.352       .  A
C1         C1698   1.471       .  S
N2            C3   1.359       .  A
C3            N4   1.364       .  A
C3         C1717   1.481       .  S
N4            C5   1.364       .  A
C5            N6   1.357       .  A
C5         C1745   1.493       .  S
O7          Cu15   2.018       .  S
O7           C17   1.280       .  A
O8          Cu15   2.012       .  S
O8           C18   1.279       .  A
O9          Cu15   2.000       .  S
O9           C19   1.276       .  A
O10         Cu15   1.996       .  S
O10          C20   1.277       .  A
O11         Cu16   2.015       .  S
O11          C20   1.278       .  A
O12         Cu16   1.999       .  S
O12          C19   1.277       .  A
O13         Cu16   2.026       .  S
O13          C18   1.279       .  A
O14         Cu16   2.017       .  S
O14          C17   1.279       .  A
Cu15        Cu16   2.370       .  S
C17        C1661   1.493       .  S
C18        C1605   1.484       .  S
C19        C1642   1.467       .  S
C20        C1754   1.485       .  S
C21          N22   1.354       .  A
C21          N26   1.360       .  A
C21        C1577   1.476       .  S
N22          C23   1.353       .  A
C23          N24   1.361       .  A
C23        C1549   1.475       .  S
N24          C25   1.364       .  A
C25          N26   1.363       .  A
C25        C1670   1.497       .  S
C27          N28   1.359       .  A
C27          N32   1.356       .  A
C27        C1493   1.475       .  S
N28          C29   1.359       .  A
C29          N30   1.358       .  A
C29        C1530   1.474       .  S
N30          C31   1.360       .  A
C31          N32   1.358       .  A
C31        C1633   1.480       .  S
C33          N34   1.363       .  A
C33          N38   1.355       .  A
C33        C1465   1.486       .  S
N34          C35   1.367       .  A
C35          N36   1.365       .  A
C35        C1614   1.495       .  S
N36          C37   1.361       .  A
C37          N38   1.355       .  A
C37        C1437   1.480       .  S
C39          N40   1.357       .  A
C39          N44   1.355       .  A
C39        C1353   1.486       .  S
N40          C41   1.359       .  A
C41          N42   1.362       .  A
C41        C1409   1.487       .  S
N42          C43   1.362       .  A
C43          N44   1.359       .  A
C43        C1381   1.486       .  S
O45         Cu53   1.997       .  S
O45          C55   1.278       .  A
O46         Cu53   2.002       .  S
O46          C56   1.275       .  A
O47         Cu53   2.002       .  S
O47          C57   1.279       .  A
O48         Cu53   2.010       .  S
O48          C58   1.278       .  A
O49         Cu54   2.008       .  S
O49          C58   1.279       .  A
O50         Cu54   2.006       .  S
O50          C57   1.277       .  A
O51         Cu54   2.017       .  S
O51          C56   1.281       .  A
O52         Cu54   2.022       .  S
O52          C55   1.279       .  A
Cu53        Cu54   2.366       .  S
C55        C1418   1.490       .  S
C56        C1297   1.489       .  S
C57        C1325   1.485       .  S
C58        C1269   1.490       .  S
C59          N60   1.356       .  A
C59          N64   1.355       .  A
C59        C1213   1.483       .  S
N60          C61   1.358       .  A
C61          N62   1.361       .  A
C61        C1334   1.493       .  S
N62          C63   1.362       .  A
C63          N64   1.358       .  A
C63        C1250   1.473       .  S
C65          N66   1.360       .  A
C65          N70   1.360       .  A
C65        C1185   1.494       .  S
N66          C67   1.362       .  A
C67          N68   1.359       .  A
C67        C1166   1.481       .  S
N68          C69   1.357       .  A
C69          N70   1.358       .  A
C69        C1306   1.484       .  S
C71          N72   1.356       .  A
C71          N76   1.359       .  A
C71        C1101   1.480       .  S
N72          C73   1.356       .  A
C73          N74   1.359       .  A
C73        C1138   1.490       .  S
N74          C75   1.363       .  A
C75          N76   1.361       .  A
C75        C1278   1.486       .  S
C77          N78   1.356       .  A
C77          N82   1.354       .  A
C77        C1054   1.469       .  S
N78          C79   1.358   1_655  A
C79          N80   1.361       .  A
C79        C1017   1.477       .  S
N80          C81   1.365       .  A
C81          N82   1.357   1_455  A
C81        C1082   1.489       .  S
O83         Cu91   1.993       .  S
O83          C93   1.277       .  A
O84         Cu91   2.008   1_545  S
O84          C94   1.277       .  A
O85         Cu91   2.017   1_455  S
O85          C95   1.280       .  A
O86         Cu91   2.015       .  S
O86          C96   1.278       .  A
O87         Cu92   2.019       .  S
O87          C96   1.279       .  A
O88         Cu92   2.015   1_455  S
O88          C95   1.278       .  A
O89         Cu92   2.014   1_545  S
O89          C94   1.280       .  A
O90         Cu92   2.016       .  S
O90          C93   1.278       .  A
Cu91        Cu92   2.369       .  S
C93        C1073   1.476       .  S
C94         C961   1.491       .  S
C95         C989   1.490       .  S
C96         C933   1.479       .  S
C97          N98   1.361       .  A
C97         N102   1.360       .  A
C97         C905   1.486       .  S
N98          C99   1.359       .  A
C99         N100   1.358   1_565  A
C99         C998   1.476       .  S
N100        C101   1.360       .  A
C101        N102   1.363   1_545  A
C101        C886   1.497       .  S
C103        N104   1.359       .  A
C103        N108   1.355       .  A
C103        C849   1.480       .  S
N104        C105   1.359   1_455  A
C105        N106   1.363       .  A
C105        C821   1.484       .  S
N106        C107   1.365       .  A
C107        N108   1.359   1_655  A
C107        C970   1.485       .  S
C109        N110   1.360       .  A
C109        N114   1.355       .  A
C109        C765   1.481       .  S
N110        C111   1.362       .  A
C111        N112   1.363       .  A
C111        C942   1.492       .  S
N112        C113   1.364       .  A
C113        N114   1.359       .  A
C113        C802   1.487   1_565  S
C115        N116   1.358       .  A
C115        N120   1.357       .  A
C115        C681   1.473       .  S
N116        C117   1.361       .  A
C117        N118   1.364   1_655  A
C117        C737   1.500       .  S
N118        C119   1.362       .  A
C119        N120   1.358   1_455  A
C119        C718   1.492       .  S
O121       Cu129   2.020       .  S
O121        C131   1.279       .  A
O122       Cu129   2.018   1_455  S
O122        C132   1.281       .  A
O123       Cu129   2.013   1_455  S
O123        C133   1.278       .  A
O124       Cu129   2.009   1_545  S
O124        C134   1.277       .  A
O125       Cu130   2.021   1_645  S
O125        C134   1.280       .  A
O126       Cu130   2.025       .  S
O126        C133   1.280       .  A
O127       Cu130   2.010       .  S
O127        C132   1.277       .  A
O128       Cu130   2.001   1_655  S
O128        C131   1.278       .  A
Cu129      Cu130   2.366   1_655  S
C131        C653   1.491       .  S
C132        C597   1.491       .  S
C133        C634   1.487       .  S
C134        C746   1.488       .  S
C135        N136   1.355       .  A
C135        N140   1.360   1_545  A
C135        C578   1.477       .  S
N136        C137   1.357   1_545  A
C137        N138   1.358       .  A
C137        C662   1.484       .  S
N138        C139   1.361       .  A
C139        N140   1.361       .  A
C139        C541   1.486       .  S
C141        N142   1.358   1_455  A
C141        N146   1.362       .  A
C141        C485   1.490       .  S
N142        C143   1.356       .  A
C143        N144   1.358       .  A
C143        C513   1.477       .  S
N144        C145   1.360   1_655  A
C145        N146   1.359       .  A
C145        C625   1.498       .  S
C147        N148   1.359       .  A
C147        N152   1.360       .  A
C147        C457   1.487       .  S
N148        C149   1.360   1_565  A
C149        N150   1.360       .  A
C149        C438   1.499       .  S
N150        C151   1.361   1_545  A
C151        N152   1.360       .  A
C151        C606   1.485       .  S
N153        C158   1.354       .  A
N153        C157   1.356       .  A
N153        H185   1.027       .  S
N154        C161   1.353       .  A
N154        C162   1.353   1_554  A
N155        C160   1.355       .  A
N155        C159   1.353       .  A
N155        H186   1.032       .  S
N156        C163   1.351   1_556  A
N156        C164   1.351       .  A
C157        C165   1.387       .  A
C157        C173   1.419       .  A
C158        C174   1.418       .  A
C158        C166   1.387       .  A
C159        C167   1.388       .  A
C159        C176   1.417       .  A
C160        C175   1.412       .  A
C160        C168   1.385       .  A
C161        C173   1.417       .  A
C161        C169   1.386       .  A
C162        C176   1.417       .  A
C162        C170   1.386       .  A
C163        C171   1.387       .  A
C163        C174   1.414       .  A
C164        C172   1.386       .  A
C164        C175   1.412       .  A
C165        C166   1.376       .  A
C165        H177   1.082       .  S
C166        H178   1.082       .  S
C167        C168   1.375       .  A
C167        H179   1.082       .  S
C168        H180   1.082       .  S
C169        C170   1.374   1_554  A
C169        H181   1.082       .  S
C170        H182   1.082       .  S
C171        C172   1.373   1_554  A
C171        H183   1.082       .  S
C172        H184   1.082       .  S
C173        C709   1.492       .  S
C174       C1446   1.484       .  S
C175       C1222   1.485       .  S
C176        C858   1.492       .  S
N187        C192   1.351       .  A
N187        C191   1.351       .  A
N187        H219   1.049       .  S
N188        C195   1.349       .  A
N188        C196   1.350   1_554  A
N189        C194   1.347       .  A
N189        C193   1.349       .  A
N189        H220   1.050       .  S
N190        C197   1.351       .  A
N190        C198   1.351   1_554  A
C191        C199   1.387       .  A
C191        C207   1.414       .  A
C192        C208   1.414       .  A
C192        C200   1.387       .  A
C193        C201   1.387       .  A
C193        C210   1.412       .  A
C194        C209   1.410       .  A
C194        C202   1.387       .  A
C195        C207   1.411       .  A
C195        C203   1.387       .  A
C196        C210   1.410       .  A
C196        C204   1.386       .  A
C197        C205   1.386       .  A
C197        C208   1.413       .  A
C198        C206   1.386       .  A
C198        C209   1.414       .  A
C199        C200   1.375       .  A
C199        H211   1.082       .  S
C200        H212   1.082       .  S
C201        C202   1.374       .  A
C201        H213   1.082       .  S
C202        H214   1.082       .  S
C203        C204   1.371   1_554  A
C203        H215   1.082       .  S
C204        H216   1.082       .  S
C205        C206   1.375   1_554  A
C205        H217   1.082       .  S
C206        H218   1.082       .  S
C207       C1689   1.484       .  S
C208        C569   1.487       .  S
C209        C793   1.479       .  S
C210       C1157   1.480       .  S
N221        C226   1.351       .  A
N221        C225   1.353       .  A
N221        H253   1.037       .  S
N222        C229   1.349   1_556  A
N222        C230   1.348       .  A
N223        C228   1.351       .  A
N223        C227   1.351       .  A
N223        H254   1.039       .  S
N224        C231   1.350   1_556  A
N224        C232   1.351       .  A
C225        C233   1.387       .  A
C225        C241   1.415       .  A
C226        C242   1.412       .  A
C226        C234   1.387       .  A
C227        C235   1.387       .  A
C227        C244   1.410       .  A
C228        C243   1.411       .  A
C228        C236   1.387       .  A
C229        C241   1.410       .  A
C229        C237   1.386       .  A
C230        C244   1.407       .  A
C230        C238   1.385       .  A
C231        C239   1.386       .  A
C231        C242   1.412       .  A
C232        C240   1.386       .  A
C232        C243   1.413       .  A
C233        C234   1.375       .  A
C233        H245   1.082       .  S
C234        H246   1.082       .  S
C235        C236   1.374       .  A
C235        H247   1.082       .  S
C236        H248   1.082       .  S
C237        C238   1.374   1_554  A
C237        H249   1.082       .  S
C238        H250   1.082       .  S
C239        C240   1.374   1_554  A
C239        H251   1.082       .  S
C240        H252   1.082       .  S
C241       C1558   1.487       .  S
C242        C522   1.482       .  S
C243       C1045   1.487       .  S
C244       C1110   1.477       .  S
N255        C260   1.351       .  A
N255        C259   1.355       .  A
N255        H287   1.039       .  S
N256        C263   1.352       .  A
N256        C264   1.352   1_554  A
N257        C262   1.355       .  A
N257        C261   1.353       .  A
N257        H288   1.036       .  S
N258        C265   1.351   1_556  A
N258        C266   1.353       .  A
C259        C267   1.387       .  A
C259        C275   1.416       .  A
C260        C276   1.413       .  A
C260        C268   1.387       .  A
C261        C269   1.387       .  A
C261        C278   1.418       .  A
C262        C277   1.420       .  A
C262        C270   1.387       .  A
C263        C275   1.415       .  A
C263        C271   1.386       .  A
C264        C278   1.415       .  A
C264        C272   1.387       .  A
C265        C273   1.385       .  A
C265        C276   1.412       .  A
C266        C274   1.387       .  A
C266        C277   1.417       .  A
C267        C268   1.376       .  A
C267        H279   1.082       .  S
C268        H280   1.082       .  S
C269        C270   1.377       .  A
C269        H281   1.082       .  S
C270        H282   1.082       .  S
C271        C272   1.371   1_554  A
C271        H283   1.082       .  S
C272        H284   1.082       .  S
C273        C274   1.373   1_554  A
C273        H285   1.082       .  S
C274        H286   1.082       .  S
C275       C1502   1.496       .  S
C276        C466   1.482       .  S
C277        C914   1.498       .  S
C278       C1362   1.486       .  S
N289        C294   1.359       .  A
N289        C293   1.356       .  A
N289        H321   1.021       .  S
N290        C297   1.351       .  A
N290        C298   1.354       .  A
N291        C296   1.354       .  A
N291        C295   1.356       .  A
N291        H322   1.011       .  S
N292        C299   1.353       .  A
N292        C300   1.351       .  A
C293        C301   1.388       .  A
C293        C309   1.420       .  A
C294        C310   1.418       .  A
C294        C302   1.385       .  A
C295        C303   1.385       .  A
C295        C312   1.414       .  A
C296        C311   1.417       .  A
C296        C304   1.389       .  A
C297        C309   1.416       .  A
C297        C305   1.388       .  A
C298        C312   1.414       .  A
C298        C306   1.384       .  A
C299        C307   1.386       .  A
C299        C310   1.415       .  A
C300        C308   1.388       .  A
C300        C311   1.417       .  A
C301        C302   1.378       .  A
C301        H313   1.082       .  S
C302        H314   1.082       .  S
C303        C304   1.375       .  A
C303        H315   1.082       .  S
C304        H316   1.082       .  S
C305        C306   1.372       .  A
C305        H317   1.082       .  S
C306        H318   1.082       .  S
C307        C308   1.371       .  A
C307        H319   1.082       .  S
C308        H320   1.082       .  S
C309       C1241   1.490       .  S
C310       C1026   1.496       .  S
C311        C494   1.481       .  S
C312       C1474   1.489       .  S
N323        C328   1.354       .  A
N323        C327   1.353       .  A
N323        H355   1.038       .  S
N324        C331   1.352       .  A
N324        C332   1.353       .  A
N325        C330   1.353       .  A
N325        C329   1.354       .  A
N325        H356   1.036       .  S
N326        C333   1.353       .  A
N326        C334   1.352       .  A
C327        C335   1.388       .  A
C327        C343   1.416       .  A
C328        C344   1.413       .  A
C328        C336   1.386       .  A
C329        C337   1.387       .  A
C329        C346   1.417       .  A
C330        C345   1.417       .  A
C330        C338   1.388       .  A
C331        C343   1.416       .  A
C331        C339   1.386       .  A
C332        C346   1.416       .  A
C332        C340   1.386       .  A
C333        C341   1.386       .  A
C333        C344   1.414       .  A
C334        C342   1.387       .  A
C334        C345   1.415       .  A
C335        C336   1.374       .  A
C335        H347   1.082       .  S
C336        H348   1.082       .  S
C337        C338   1.375       .  A
C337        H349   1.082       .  S
C338        H350   1.082       .  S
C339        C340   1.375       .  A
C339        H351   1.082       .  S
C340        H352   1.082       .  S
C341        C342   1.375       .  A
C341        H353   1.082       .  S
C342        H354   1.082       .  S
C343        C877   1.490       .  S
C344       C1194   1.489       .  S
C345       C1726   1.486       .  S
C346        C429   1.494       .  S
N357        C362   1.354       .  A
N357        C361   1.355       .  A
N357        H389   1.038       .  S
N358        C365   1.352       .  A
N358        C366   1.352       .  A
N359        C364   1.352       .  A
N359        C363   1.352       .  A
N359        H390   1.038       .  S
N360        C367   1.352       .  A
N360        C368   1.353       .  A
C361        C369   1.386       .  A
C361        C377   1.417       .  A
C362        C378   1.418       .  A
C362        C370   1.388       .  A
C363        C371   1.387       .  A
C363        C380   1.412       .  A
C364        C379   1.415       .  A
C364        C372   1.387       .  A
C365        C377   1.415       .  A
C365        C373   1.387       .  A
C366        C380   1.411       .  A
C366        C374   1.385       .  A
C367        C375   1.386       .  A
C367        C378   1.414       .  A
C368        C376   1.387       .  A
C368        C379   1.417       .  A
C369        C370   1.375       .  A
C369        H381   1.082       .  S
C370        H382   1.082       .  S
C371        C372   1.376       .  A
C371        H383   1.082       .  S
C372        H384   1.082       .  S
C373        C374   1.372       .  A
C373        H385   1.082       .  S
C374        H386   1.082       .  S
C375        C376   1.373       .  A
C375        H387   1.082       .  S
C376        H388   1.082       .  S
C377        C830   1.494       .  S
C378       C1129   1.488       .  S
C379       C1586   1.491       .  S
C380        C690   1.484       .  S
N391        C396   1.354       .  A
N391        C395   1.351       .  A
N391        H423   1.038       .  S
N392        C399   1.350       .  A
N392        C400   1.351       .  A
N393        C398   1.351       .  A
N393        C397   1.355       .  A
N393        H424   1.037       .  S
N394        C401   1.353       .  A
N394        C402   1.350       .  A
C395        C403   1.388       .  A
C395        C411   1.413       .  A
C396        C412   1.415       .  A
C396        C404   1.386       .  A
C397        C405   1.387       .  A
C397        C414   1.419       .  A
C398        C413   1.415       .  A
C398        C406   1.387       .  A
C399        C411   1.411       .  A
C399        C407   1.386       .  A
C400        C414   1.414       .  A
C400        C408   1.386       .  A
C401        C409   1.385       .  A
C401        C412   1.413       .  A
C402        C410   1.387       .  A
C402        C413   1.414       .  A
C403        C404   1.374       .  A
C403        H415   1.082       .  S
C404        H416   1.082       .  S
C405        C406   1.377       .  A
C405        H417   1.082       .  S
C406        H418   1.082       .  S
C407        C408   1.373       .  A
C407        H419   1.082       .  S
C408        H420   1.082       .  S
C409        C410   1.373       .  A
C409        H421   1.082       .  S
C410        H422   1.082       .  S
C411       C1390   1.478       .  S
C412        C774   1.495       .  S
C413        C550   1.481       .  S
C414       C1521   1.494       .  S
C425        C426   1.404       .  A
C425        C430   1.403       .  A
C425        H435   1.084       .  S
C426        C431   1.488       .  S
C426        C427   1.411       .  A
C427        C428   1.403       .  A
C427        N432   1.429       .  S
C428        C429   1.404       .  A
C428        H433   1.084       .  S
C429        C430   1.410       .  A
C430        N434   1.428       .  S
C431        C436   1.408       .  A
C431        C440   1.402       .  A
N432        O447   1.262       .  A
N432        O448   1.262       .  A
N434        O445   1.262       .  A
N434        O446   1.262       .  A
C436        C437   1.402       .  A
C436        N441   1.429       .  S
C437        C438   1.410       .  A
C437        H442   1.083       .  S
C438        C439   1.419       .  A
C439        C440   1.404       .  A
C439        N443   1.429       .  S
C440        H444   1.084       .  S
N441        O451   1.262       .  A
N441        O452   1.262       .  A
N443        O449   1.262       .  A
N443        O450   1.262       .  A
C453        C454   1.403       .  A
C453        C458   1.400       .  A
C453        H463   1.083       .  S
C454        C459   1.489       .  S
C454        C455   1.411       .  A
C455        C456   1.402       .  A
C455        N460   1.429       .  S
C456        C457   1.406       .  A
C456        H461   1.084       .  S
C457        C458   1.414       .  A
C458        N462   1.429       .  S
C459        C464   1.414       .  A
C459        C468   1.407       .  A
N460        O475   1.262       .  A
N460        O476   1.262       .  A
N462        O473   1.262       .  A
N462        O474   1.262       .  A
C464        C465   1.399       .  A
C464        N469   1.429       .  S
C465        C466   1.398       .  A
C465        H470   1.084       .  S
C466        C467   1.406       .  A
C467        C468   1.402       .  A
C467        N471   1.429       .  S
C468        H472   1.083       .  S
N469        O479   1.262       .  A
N469        O480   1.262       .  A
N471        O477   1.262       .  A
N471        O478   1.262       .  A
C481        C482   1.401       .  A
C481        C486   1.400       .  A
C481        H491   1.083       .  S
C482        C487   1.485       .  S
C482        C483   1.410       .  A
C483        C484   1.398       .  A
C483        N488   1.430       .  S
C484        C485   1.407       .  A
C484        H489   1.082       .  S
C485        C486   1.419       .  A
C486        N490   1.431       .  S
C487        C492   1.414       .  A
C487        C496   1.405       .  A
N488        O503   1.262       .  A
N488        O504   1.262       .  A
N490        O501   1.262       .  A
N490        O502   1.262       .  A
C492        C493   1.397       .  A
C492        N497   1.429       .  S
C493        C494   1.399       .  A
C493        H498   1.084       .  S
C494        C495   1.407       .  A
C495        C496   1.398       .  A
C495        N499   1.429       .  S
C496        H500   1.083       .  S
N497        O507   1.262       .  A
N497        O508   1.262       .  A
N499        O505   1.262       .  A
N499        O506   1.262       .  A
C509        C510   1.404       .  A
C509        C514   1.401       .  A
C509        H519   1.084       .  S
C510        C515   1.483       .  S
C510        C511   1.410       .  A
C511        C512   1.398       .  A
C511        N516   1.429       .  S
C512        C513   1.402       .  A
C512        H517   1.084       .  S
C513        C514   1.412       .  A
C514        N518   1.431       .  S
C515        C520   1.412       .  A
C515        C524   1.405       .  A
N516        O531   1.262       .  A
N516        O532   1.262       .  A
N518        O529   1.262       .  A
N518        O530   1.262       .  A
C520        C521   1.398       .  A
C520        N525   1.429       .  S
C521        C522   1.401       .  A
C521        H526   1.084       .  S
C522        C523   1.406       .  A
C523        C524   1.399       .  A
C523        N527   1.428       .  S
C524        H528   1.083       .  S
N525        O535   1.262       .  A
N525        O536   1.262       .  A
N527        O533   1.262       .  A
N527        O534   1.262       .  A
C537        C538   1.404       .  A
C537        C542   1.402       .  A
C537        H547   1.083       .  S
C538        C543   1.490       .  S
C538        C539   1.412       .  A
C539        C540   1.400       .  A
C539        N544   1.430       .  S
C540        C541   1.405       .  A
C540        H545   1.084       .  S
C541        C542   1.414       .  A
C542        N546   1.429       .  S
C543        C548   1.414       .  A
C543        C552   1.407       .  A
N544        O559   1.262       .  A
N544        O560   1.262       .  A
N546        O557   1.262       .  A
N546        O558   1.262       .  A
C548        C549   1.401       .  A
C548        N553   1.429       .  S
C549        C550   1.399       .  A
C549        H554   1.084       .  S
C550        C551   1.405       .  A
C551        C552   1.399       .  A
C551        N555   1.429       .  S
C552        H556   1.083       .  S
N553        O563   1.262       .  A
N553        O564   1.262       .  A
N555        O561   1.262       .  A
N555        O562   1.262       .  A
C565        C566   1.404       .  A
C565        C570   1.397       .  A
C565        H575   1.083       .  S
C566        C571   1.488       .  S
C566        C567   1.414       .  A
C567        C568   1.403       .  A
C567        N572   1.429       .  S
C568        C569   1.402       .  A
C568        H573   1.084       .  S
C569        C570   1.408       .  A
C570        N574   1.429       .  S
C571        C576   1.413       .  A
C571        C580   1.404       .  A
N572        O587   1.262       .  A
N572        O588   1.262       .  A
N574        O585   1.262       .  A
N574        O586   1.262       .  A
C576        C577   1.400       .  A
C576        N581   1.430       .  S
C577        C578   1.401       .  A
C577        H582   1.084       .  S
C578        C579   1.412       .  A
C579        C580   1.401       .  A
C579        N583   1.429       .  S
C580        H584   1.083       .  S
N581        O591   1.262       .  A
N581        O592   1.262       .  A
N583        O589   1.262   1_545  A
N583        O590   1.262       .  A
C593        C594   1.403   1_545  A
C593        C598   1.402       .  A
C593        H603   1.084       .  S
C594        C599   1.488       .  S
C594        C595   1.410       .  A
C595        C596   1.401       .  A
C595        N600   1.428       .  S
C596        C597   1.406       .  A
C596        H601   1.083       .  S
C597        C598   1.418   1_565  A
C598        N602   1.429       .  S
C599        C604   1.411   1_565  A
C599        C608   1.403       .  A
N600        O615   1.262       .  A
N600        O616   1.262   1_565  A
N602        O613   1.262       .  A
N602        O614   1.262   1_545  A
C604        C605   1.401       .  A
C604        N609   1.429       .  S
C605        C606   1.404   1_545  A
C605        H610   1.084       .  S
C606        C607   1.414       .  A
C607        C608   1.402       .  A
C607        N611   1.429       .  S
C608        H612   1.083       .  S
N609        O619   1.262       .  A
N609        O620   1.262       .  A
N611        O617   1.262       .  A
N611        O618   1.262       .  A
C621        C622   1.402       .  A
C621        C626   1.404       .  A
C621        H631   1.084       .  S
C622        C627   1.488       .  S
C622        C623   1.408   1_455  A
C623        C624   1.401       .  A
C623        N628   1.429       .  S
C624        C625   1.409   1_655  A
C624        H629   1.083       .  S
C625        C626   1.419       .  A
C626        N630   1.429       .  S
C627        C632   1.411   1_455  A
C627        C636   1.402       .  A
N628        O643   1.262       .  A
N628        O644   1.262       .  A
N630        O641   1.262       .  A
N630        O642   1.262       .  A
C632        C633   1.403       .  A
C632        N637   1.429       .  S
C633        C634   1.405   1_655  A
C633        H638   1.084       .  S
C634        C635   1.414       .  A
C635        C636   1.403       .  A
C635        N639   1.429       .  S
C636        H640   1.084       .  S
N637        O647   1.262       .  A
N637        O648   1.262       .  A
N639        O645   1.262       .  A
N639        O646   1.262       .  A
C649        C650   1.402       .  A
C649        C654   1.401       .  A
C649        H659   1.084       .  S
C650        C655   1.481       .  S
C650        C651   1.406       .  A
C651        C652   1.399       .  A
C651        N656   1.429       .  S
C652        C653   1.409       .  A
C652        H657   1.083       .  S
C653        C654   1.416       .  A
C654        N658   1.429       .  S
C655        C660   1.407   1_565  A
C655        C664   1.403       .  A
N656        O671   1.262       .  A
N656        O672   1.262   1_565  A
N658        O669   1.262   1_565  A
N658        O670   1.262       .  A
C660        C661   1.397       .  A
C660        N665   1.429       .  S
C661        C662   1.406   1_545  A
C661        H666   1.084       .  S
C662        C663   1.415       .  A
C663        C664   1.402       .  A
C663        N667   1.429       .  S
C664        H668   1.084       .  S
N665        O675   1.262       .  A
N665        O676   1.262       .  A
N667        O673   1.262       .  A
N667        O674   1.262       .  A
C677        C678   1.406       .  A
C677        C682   1.403       .  A
C677        H687   1.084       .  S
C678        C683   1.489       .  S
C678        C679   1.414       .  A
C679        C680   1.401       .  A
C679        N684   1.431       .  S
C680        C681   1.399       .  A
C680        H685   1.084       .  S
C681        C682   1.408       .  A
C682        N686   1.428       .  S
C683        C688   1.415       .  A
C683        C692   1.407       .  A
N684        O699   1.262       .  A
N684        O700   1.262   1_655  A
N686        O697   1.261       .  A
N686        O698   1.262       .  A
C688        C689   1.400       .  A
C688        N693   1.430       .  S
C689        C690   1.398       .  A
C689        H694   1.084       .  S
C690        C691   1.407       .  A
C691        C692   1.403       .  A
C691        N695   1.429       .  S
C692        H696   1.084       .  S
N693        O703   1.262       .  A
N693        O704   1.262       .  A
N695        O701   1.262       .  A
N695        O702   1.262       .  A
C705        C706   1.405       .  A
C705        C710   1.403       .  A
C705        H715   1.083       .  S
C706        C711   1.492       .  S
C706        C707   1.414       .  A
C707        C708   1.403       .  A
C707        N712   1.429       .  S
C708        C709   1.401       .  A
C708        H713   1.084       .  S
C709        C710   1.409       .  A
C710        N714   1.428       .  S
C711        C716   1.412       .  A
C711        C720   1.403       .  A
N712        O727   1.262       .  A
N712        O728   1.262       .  A
N714        O725   1.261       .  A
N714        O726   1.262       .  A
C716        C717   1.404       .  A
C716        N721   1.429       .  S
C717        C718   1.406       .  A
C717        H722   1.084       .  S
C718        C719   1.416       .  A
C719        C720   1.403       .  A
C719        N723   1.429       .  S
C720        H724   1.083       .  S
N721        O731   1.262       .  A
N721        O732   1.262       .  A
N723        O729   1.262       .  A
N723        O730   1.262       .  A
C733        C734   1.401       .  A
C733        C738   1.403       .  A
C733        H743   1.084       .  S
C734        C739   1.488       .  S
C734        C735   1.408   1_655  A
C735        C736   1.402       .  A
C735        N740   1.429       .  S
C736        C737   1.410   1_455  A
C736        H741   1.083       .  S
C737        C738   1.421       .  A
C738        N742   1.428       .  S
C739        C744   1.410   1_655  A
C739        C748   1.402       .  A
N740        O755   1.262       .  A
N740        O756   1.262       .  A
N742        O753   1.262       .  A
N742        O754   1.262       .  A
C744        C745   1.402       .  A
C744        N749   1.428       .  S
C745        C746   1.405   1_455  A
C745        H750   1.084       .  S
C746        C747   1.416       .  A
C747        C748   1.403       .  A
C747        N751   1.430       .  S
C748        H752   1.084       .  S
N749        O759   1.262       .  A
N749        O760   1.262       .  A
N751        O757   1.262       .  A
N751        O758   1.262       .  A
C761        C762   1.404       .  A
C761        C766   1.403       .  A
C761        H771   1.083       .  S
C762        C767   1.491       .  S
C762        C763   1.412       .  A
C763        C764   1.400       .  A
C763        N768   1.429       .  S
C764        C765   1.402       .  A
C764        H769   1.084       .  S
C765        C766   1.413       .  A
C766        N770   1.429       .  S
C767        C772   1.412       .  A
C767        C776   1.405       .  A
N768        O783   1.262       .  A
N768        O784   1.262       .  A
N770        O781   1.262   1_565  A
N770        O782   1.262   1_565  A
C772        C773   1.401       .  A
C772        N777   1.429       .  S
C773        C774   1.404       .  A
C773        H778   1.084       .  S
C774        C775   1.411       .  A
C775        C776   1.402       .  A
C775        N779   1.429       .  S
C776        H780   1.083       .  S
N777        O787   1.262       .  A
N777        O788   1.262       .  A
N779        O785   1.262       .  A
N779        O786   1.262       .  A
C789        C790   1.406       .  A
C789        C794   1.398       .  A
C789        H799   1.084       .  S
C790        C795   1.482       .  S
C790        C791   1.413       .  A
C791        C792   1.400       .  A
C791        N796   1.429       .  S
C792        C793   1.400       .  A
C792        H797   1.084       .  S
C793        C794   1.404       .  A
C794        N798   1.428       .  S
C795        C800   1.410       .  A
C795        C804   1.400       .  A
N796        O811   1.262       .  A
N796        O812   1.262       .  A
N798        O809   1.262       .  A
N798        O810   1.262       .  A
C800        C801   1.402       .  A
C800        N805   1.430       .  S
C801        C802   1.408       .  A
C801        H806   1.082       .  S
C802        C803   1.413       .  A
C803        C804   1.398       .  A
C803        N807   1.427       .  S
C804        H808   1.084       .  S
N805        O815   1.262       .  A
N805        O816   1.262       .  A
N807        O813   1.262       .  A
N807        O814   1.262   1_545  A
C817        C818   1.405       .  A
C817        C822   1.404       .  A
C817        H827   1.083       .  S
C818        C823   1.495       .  S
C818        C819   1.413       .  A
C819        C820   1.403       .  A
C819        N824   1.430       .  S
C820        C821   1.404       .  A
C820        H825   1.084   1_655  S
C821        C822   1.411       .  A
C822        N826   1.429       .  S
C823        C828   1.414       .  A
C823        C832   1.407       .  A
N824        O839   1.262       .  A
N824        O840   1.262       .  A
N826        O837   1.262       .  A
N826        O838   1.262       .  A
C828        C829   1.400       .  A
C828        N833   1.429       .  S
C829        C830   1.403       .  A
C829        H834   1.084       .  S
C830        C831   1.410       .  A
C831        C832   1.403       .  A
C831        N835   1.429       .  S
C832        H836   1.083       .  S
N833        O843   1.262       .  A
N833        O844   1.262       .  A
N835        O841   1.262       .  A
N835        O842   1.262       .  A
C845        C846   1.407       .  A
C845        C850   1.403       .  A
C845        H855   1.082       .  S
C846        C851   1.495       .  S
C846        C847   1.415       .  A
C847        C848   1.398       .  A
C847        N852   1.429       .  S
C848        C849   1.400       .  A
C848        H853   1.084   1_455  S
C849        C850   1.412       .  A
C850        N854   1.429       .  S
C851        C856   1.416       .  A
C851        C860   1.406       .  A
N852        O867   1.262       .  A
N852        O868   1.262   1_455  A
N854        O865   1.262       .  A
N854        O866   1.262       .  A
C856        C857   1.401       .  A
C856        N861   1.429       .  S
C857        C858   1.402       .  A
C857        H862   1.084       .  S
C858        C859   1.410       .  A
C859        C860   1.399       .  A
C859        N863   1.429       .  S
C860        H864   1.082       .  S
N861        O871   1.262       .  A
N861        O872   1.262       .  A
N863        O869   1.262       .  A
N863        O870   1.262       .  A
C873        C874   1.402       .  A
C873        C878   1.400       .  A
C873        H883   1.084       .  S
C874        C879   1.482       .  S
C874        C875   1.411       .  A
C875        C876   1.402       .  A
C875        N880   1.428       .  S
C876        C877   1.403       .  A
C876        H881   1.084       .  S
C877        C878   1.411       .  A
C878        N882   1.429       .  S
C879        C884   1.408       .  A
C879        C888   1.399       .  A
N880        O895   1.262       .  A
N880        O896   1.262       .  A
N882        O893   1.262       .  A
N882        O894   1.262       .  A
C884        C885   1.402       .  A
C884        N889   1.430       .  S
C885        C886   1.410       .  A
C885        H890   1.083       .  S
C886        C887   1.420       .  A
C887        C888   1.401       .  A
C887        N891   1.429       .  S
C888        H892   1.084       .  S
N889        O899   1.262       .  A
N889        O900   1.262       .  A
N891        O897   1.262       .  A
N891        O898   1.262       .  A
C901        C902   1.408       .  A
C901        C906   1.404       .  A
C901        H911   1.082       .  S
C902        C907   1.502       .  S
C902        C903   1.417       .  A
C903        C904   1.403       .  A
C903        N908   1.429       .  S
C904        C905   1.402       .  A
C904        H909   1.084       .  S
C905        C906   1.411       .  A
C906        N910   1.429       .  S
C907        C912   1.417       .  A
C907        C916   1.408       .  A
N908        O923   1.262       .  A
N908        O924   1.262       .  A
N910        O921   1.262   1_565  A
N910        O922   1.262   1_565  A
C912        C913   1.403       .  A
C912        N917   1.429       .  S
C913        C914   1.402       .  A
C913        H918   1.084       .  S
C914        C915   1.411       .  A
C915        C916   1.403       .  A
C915        N919   1.430       .  S
C916        H920   1.082       .  S
N917        O927   1.262       .  A
N917        O928   1.262       .  A
N919        O925   1.262       .  A
N919        O926   1.262       .  A
C929        C930   1.405       .  A
C929        C934   1.403       .  A
C929        H939   1.083       .  S
C930        C935   1.492       .  S
C930        C931   1.414   1_565  A
C931        C932   1.403       .  A
C931        N936   1.429       .  S
C932        C933   1.402   1_545  A
C932        H937   1.084       .  S
C933        C934   1.410       .  A
C934        N938   1.429       .  S
C935        C940   1.411       .  A
C935        C944   1.402       .  A
N936        O951   1.262       .  A
N936        O952   1.262       .  A
N938        O949   1.262       .  A
N938        O950   1.262       .  A
C940        C941   1.403       .  A
C940        N945   1.429       .  S
C941        C942   1.407       .  A
C941        H946   1.084       .  S
C942        C943   1.416       .  A
C943        C944   1.405       .  A
C943        N947   1.431       .  S
C944        H948   1.083       .  S
N945        O955   1.262       .  A
N945        O956   1.262   1_565  A
N947        O953   1.262       .  A
N947        O954   1.262       .  A
C957        C958   1.400   1_655  A
C957        C962   1.400       .  A
C957        H967   1.084       .  S
C958        C963   1.482       .  S
C958        C959   1.409       .  A
C959        C960   1.401       .  A
C959        N964   1.429       .  S
C960        C961   1.408   1_455  A
C960        H965   1.083       .  S
C961        C962   1.417       .  A
C962        N966   1.428       .  S
C963        C968   1.409       .  A
C963        C972   1.401   1_455  A
N964        O979   1.262   1_455  A
N964        O980   1.262       .  A
N966        O977   1.262   1_655  A
N966        O978   1.262       .  A
C968        C969   1.401       .  A
C968        N973   1.430       .  S
C969        C970   1.407   1_455  A
C969        H974   1.083       .  S
C970        C971   1.412       .  A
C971        C972   1.401       .  A
C971        N975   1.427       .  S
C972        H976   1.084       .  S
N973        O983   1.262       .  A
N973        O984   1.262       .  A
N975        O981   1.262       .  A
N975        O982   1.262       .  A
C985        C986   1.404       .  A
C985        C990   1.402       .  A
C985        H995   1.083       .  S
C986        C991   1.492       .  S
C986        C987   1.411   1_565  A
C987        C988   1.402       .  A
C987        N992   1.429       .  S
C988        C989   1.406   1_545  A
C988        H993   1.084       .  S
C989        C990   1.415       .  A
C990        N994   1.429       .  S
C991        C996   1.414   1_565  A
C991       C1000   1.406       .  A
N992       O1007   1.262   1_545  A
N992       O1008   1.262       .  A
N994       O1005   1.262       .  A
N994       O1006   1.261       .  A
C996        C997   1.403       .  A
C996       N1001   1.429       .  S
C997        C998   1.401   1_545  A
C997       H1002   1.084       .  S
C998        C999   1.408       .  A
C999       C1000   1.403       .  A
C999       N1003   1.429       .  S
C1000      H1004   1.083       .  S
N1001      O1011   1.262       .  A
N1001      O1012   1.262       .  A
N1003      O1009   1.261       .  A
N1003      O1010   1.262       .  A
C1013      C1014   1.406       .  A
C1013      C1018   1.406       .  A
C1013      H1023   1.084       .  S
C1014      C1019   1.488       .  S
C1014      C1015   1.410       .  A
C1015      C1016   1.399       .  A
C1015      N1020   1.429       .  S
C1016      C1017   1.401       .  A
C1016      H1021   1.084   1_455  S
C1017      C1018   1.410       .  A
C1018      N1022   1.429       .  S
C1019      C1024   1.409       .  A
C1019      C1028   1.405       .  A
N1020      O1035   1.262       .  A
N1020      O1036   1.262       .  A
N1022      O1033   1.262       .  A
N1022      O1034   1.262       .  A
C1024      C1025   1.402       .  A
C1024      N1029   1.428       .  S
C1025      C1026   1.405       .  A
C1025      H1030   1.084       .  S
C1026      C1027   1.411       .  A
C1027      C1028   1.404       .  A
C1027      N1031   1.429       .  S
C1028      H1032   1.084       .  S
N1029      O1039   1.262       .  A
N1029      O1040   1.262       .  A
N1031      O1037   1.262       .  A
N1031      O1038   1.262       .  A
C1041      C1042   1.404       .  A
C1041      C1046   1.397       .  A
C1041      H1051   1.083       .  S
C1042      C1047   1.486       .  S
C1042      C1043   1.413       .  A
C1043      C1044   1.400       .  A
C1043      N1048   1.429       .  S
C1044      C1045   1.402       .  A
C1044      H1049   1.084       .  S
C1045      C1046   1.410       .  A
C1046      N1050   1.429       .  S
C1047      C1052   1.414       .  A
C1047      C1056   1.404       .  A
N1048      O1063   1.262       .  A
N1048      O1064   1.262       .  A
N1050      O1061   1.262       .  A
N1050      O1062   1.262       .  A
C1052      C1053   1.397       .  A
C1052      N1057   1.430       .  S
C1053      C1054   1.398       .  A
C1053      H1058   1.084   1_655  S
C1054      C1055   1.410       .  A
C1055      C1056   1.401       .  A
C1055      N1059   1.431       .  S
C1056      H1060   1.083       .  S
N1057      O1067   1.262       .  A
N1057      O1068   1.262       .  A
N1059      O1065   1.262       .  A
N1059      O1066   1.262       .  A
C1069      C1070   1.402   1_455  A
C1069      C1074   1.400       .  A
C1069      H1079   1.084       .  S
C1070      C1075   1.478       .  S
C1070      C1071   1.408       .  A
C1071      C1072   1.398       .  A
C1071      N1076   1.430       .  S
C1072      C1073   1.404       .  A
C1072      H1077   1.084       .  S
C1073      C1074   1.411   1_655  A
C1074      N1078   1.428       .  S
C1075      C1080   1.409   1_655  A
C1075      C1084   1.397       .  A
N1076      O1091   1.262       .  A
N1076      O1092   1.262       .  A
N1078      O1089   1.261       .  A
N1078      O1090   1.262       .  A
C1080      C1081   1.400       .  A
C1080      N1085   1.429       .  S
C1081      C1082   1.406       .  A
C1081      H1086   1.083       .  S
C1082      C1083   1.420   1_455  A
C1083      C1084   1.399       .  A
C1083      N1087   1.429       .  S
C1084      H1088   1.084       .  S
N1085      O1095   1.262       .  A
N1085      O1096   1.262       .  A
N1087      O1093   1.262       .  A
N1087      O1094   1.262       .  A
C1097      C1098   1.405       .  A
C1097      C1102   1.400       .  A
C1097      H1107   1.083       .  S
C1098      C1103   1.489       .  S
C1098      C1099   1.412       .  A
C1099      C1100   1.398       .  A
C1099      N1104   1.429       .  S
C1100      C1101   1.404       .  A
C1100      H1105   1.084       .  S
C1101      C1102   1.411       .  A
C1102      N1106   1.429       .  S
C1103      C1108   1.415       .  A
C1103      C1112   1.408       .  A
N1104      O1119   1.262       .  A
N1104      O1120   1.262       .  A
N1106      O1117   1.262       .  A
N1106      O1118   1.262       .  A
C1108      C1109   1.396       .  A
C1108      N1113   1.429       .  S
C1109      C1110   1.397       .  A
C1109      H1114   1.084       .  S
C1110      C1111   1.405       .  A
C1111      C1112   1.400       .  A
C1111      N1115   1.430       .  S
C1112      H1116   1.082       .  S
N1113      O1123   1.262       .  A
N1113      O1124   1.262       .  A
N1115      O1121   1.262       .  A
N1115      O1122   1.262       .  A
C1125      C1126   1.405       .  A
C1125      C1130   1.401       .  A
C1125      H1135   1.083       .  S
C1126      C1131   1.487       .  S
C1126      C1127   1.411       .  A
C1127      C1128   1.401       .  A
C1127      N1132   1.429       .  S
C1128      C1129   1.402       .  A
C1128      H1133   1.084       .  S
C1129      C1130   1.408       .  A
C1130      N1134   1.428       .  S
C1131      C1136   1.409       .  A
C1131      C1140   1.404       .  A
N1132      O1147   1.262       .  A
N1132      O1148   1.262       .  A
N1134      O1145   1.262       .  A
N1134      O1146   1.262       .  A
C1136      C1137   1.398       .  A
C1136      N1141   1.429       .  S
C1137      C1138   1.407       .  A
C1137      H1142   1.083       .  S
C1138      C1139   1.415       .  A
C1139      C1140   1.404       .  A
C1139      N1143   1.429       .  S
C1140      H1144   1.084       .  S
N1141      O1151   1.262       .  A
N1141      O1152   1.262       .  A
N1143      O1149   1.262       .  A
N1143      O1150   1.262       .  A
C1153      C1154   1.405       .  A
C1153      C1158   1.397       .  A
C1153      H1163   1.083       .  S
C1154      C1159   1.484       .  S
C1154      C1155   1.414       .  A
C1155      C1156   1.399       .  A
C1155      N1160   1.429       .  S
C1156      C1157   1.399       .  A
C1156      H1161   1.084       .  S
C1157      C1158   1.405       .  A
C1158      N1162   1.429       .  S
C1159      C1164   1.412       .  A
C1159      C1168   1.402       .  A
N1160      O1175   1.262       .  A
N1160      O1176   1.262       .  A
N1162      O1173   1.262       .  A
N1162      O1174   1.262       .  A
C1164      C1165   1.400       .  A
C1164      N1169   1.429       .  S
C1165      C1166   1.404       .  A
C1165      H1170   1.084       .  S
C1166      C1167   1.413       .  A
C1167      C1168   1.399       .  A
C1167      N1171   1.430       .  S
C1168      H1172   1.083       .  S
N1169      O1179   1.262       .  A
N1169      O1180   1.262       .  A
N1171      O1177   1.262       .  A
N1171      O1178   1.262       .  A
C1181      C1182   1.403       .  A
C1181      C1186   1.405       .  A
C1181      H1191   1.084       .  S
C1182      C1187   1.485       .  S
C1182      C1183   1.406       .  A
C1183      C1184   1.399       .  A
C1183      N1188   1.428       .  S
C1184      C1185   1.408       .  A
C1184      H1189   1.083       .  S
C1185      C1186   1.418       .  A
C1186      N1190   1.429       .  S
C1187      C1192   1.410       .  A
C1187      C1196   1.404       .  A
N1188      O1203   1.262       .  A
N1188      O1204   1.262       .  A
N1190      O1201   1.262       .  A
N1190      O1202   1.262       .  A
C1192      C1193   1.402       .  A
C1192      N1197   1.428       .  S
C1193      C1194   1.402       .  A
C1193      H1198   1.084       .  S
C1194      C1195   1.409       .  A
C1195      C1196   1.402       .  A
C1195      N1199   1.429       .  S
C1196      H1200   1.084       .  S
N1197      O1207   1.262       .  A
N1197      O1208   1.262       .  A
N1199      O1205   1.262       .  A
N1199      O1206   1.262       .  A
C1209      C1210   1.405       .  A
C1209      C1214   1.402       .  A
C1209      H1219   1.083       .  S
C1210      C1215   1.487       .  S
C1210      C1211   1.410       .  A
C1211      C1212   1.397       .  A
C1211      N1216   1.429       .  S
C1212      C1213   1.405       .  A
C1212      H1217   1.084       .  S
C1213      C1214   1.413       .  A
C1214      N1218   1.429       .  S
C1215      C1220   1.413       .  A
C1215      C1224   1.405       .  A
N1216      O1231   1.262       .  A
N1216      O1232   1.262       .  A
N1218      O1229   1.262       .  A
N1218      O1230   1.262       .  A
C1220      C1221   1.400       .  A
C1220      N1225   1.429       .  S
C1221      C1222   1.400       .  A
C1221      H1226   1.084       .  S
C1222      C1223   1.407       .  A
C1223      C1224   1.400       .  A
C1223      N1227   1.428       .  S
C1224      H1228   1.083       .  S
N1225      O1235   1.262       .  A
N1225      O1236   1.262       .  A
N1227      O1233   1.262       .  A
N1227      O1234   1.262       .  A
C1237      C1238   1.401       .  A
C1237      C1242   1.399       .  A
C1237      H1247   1.084       .  S
C1238      C1243   1.477       .  S
C1238      C1239   1.409       .  A
C1239      C1240   1.398       .  A
C1239      N1244   1.429       .  S
C1240      C1241   1.403       .  A
C1240      H1245   1.084       .  S
C1241      C1242   1.413       .  A
C1242      N1246   1.430       .  S
C1243      C1248   1.409       .  A
C1243      C1252   1.400       .  A
N1244      O1259   1.262       .  A
N1244      O1260   1.262       .  A
N1246      O1257   1.262       .  A
N1246      O1258   1.262       .  A
C1248      C1249   1.400       .  A
C1248      N1253   1.430       .  S
C1249      C1250   1.404       .  A
C1249      H1254   1.084       .  S
C1250      C1251   1.410       .  A
C1251      C1252   1.398       .  A
C1251      N1255   1.429       .  S
C1252      H1256   1.084       .  S
N1253      O1263   1.262       .  A
N1253      O1264   1.262       .  A
N1255      O1261   1.262       .  A
N1255      O1262   1.262       .  A
C1265      C1266   1.402       .  A
C1265      C1270   1.401       .  A
C1265      H1275   1.083       .  S
C1266      C1271   1.485       .  S
C1266      C1267   1.410       .  A
C1267      C1268   1.400       .  A
C1267      N1272   1.429       .  S
C1268      C1269   1.408       .  A
C1268      H1273   1.083       .  S
C1269      C1270   1.417       .  A
C1270      N1274   1.429       .  S
C1271      C1276   1.410       .  A
C1271      C1280   1.402       .  A
N1272      O1287   1.262       .  A
N1272      O1288   1.262       .  A
N1274      O1285   1.262       .  A
N1274      O1286   1.262       .  A
C1276      C1277   1.400       .  A
C1276      N1281   1.429       .  S
C1277      C1278   1.405       .  A
C1277      H1282   1.084       .  S
C1278      C1279   1.415       .  A
C1279      C1280   1.401       .  A
C1279      N1283   1.429       .  S
C1280      H1284   1.083       .  S
N1281      O1291   1.262       .  A
N1281      O1292   1.262       .  A
N1283      O1289   1.262       .  A
N1283      O1290   1.262       .  A
C1293      C1294   1.403       .  A
C1293      C1298   1.403       .  A
C1293      H1303   1.083       .  S
C1294      C1299   1.488       .  S
C1294      C1295   1.411       .  A
C1295      C1296   1.398       .  A
C1295      N1300   1.429       .  S
C1296      C1297   1.405       .  A
C1296      H1301   1.083       .  S
C1297      C1298   1.418       .  A
C1298      N1302   1.430       .  S
C1299      C1304   1.411       .  A
C1299      C1308   1.403       .  A
N1300      O1315   1.262       .  A
N1300      O1316   1.261       .  A
N1302      O1313   1.262       .  A
N1302      O1314   1.262       .  A
C1304      C1305   1.400       .  A
C1304      N1309   1.429       .  S
C1305      C1306   1.405       .  A
C1305      H1310   1.084       .  S
C1306      C1307   1.414       .  A
C1307      C1308   1.401       .  A
C1307      N1311   1.430       .  S
C1308      H1312   1.083       .  S
N1309      O1319   1.262       .  A
N1309      O1320   1.262       .  A
N1311      O1317   1.262       .  A
N1311      O1318   1.262       .  A
C1321      C1322   1.403       .  A
C1321      C1326   1.402       .  A
C1321      H1331   1.083       .  S
C1322      C1327   1.483       .  S
C1322      C1323   1.409       .  A
C1323      C1324   1.396       .  A
C1323      N1328   1.429       .  S
C1324      C1325   1.405       .  A
C1324      H1329   1.084       .  S
C1325      C1326   1.416       .  A
C1326      N1330   1.429       .  S
C1327      C1332   1.407       .  A
C1327      C1336   1.402       .  A
N1328      O1343   1.262       .  A
N1328      O1344   1.262       .  A
N1330      O1341   1.262       .  A
N1330      O1342   1.262       .  A
C1332      C1333   1.398       .  A
C1332      N1337   1.429       .  S
C1333      C1334   1.410       .  A
C1333      H1338   1.083       .  S
C1334      C1335   1.416       .  A
C1335      C1336   1.401       .  A
C1335      N1339   1.427       .  S
C1336      H1340   1.084       .  S
N1337      O1347   1.262       .  A
N1337      O1348   1.262       .  A
N1339      O1345   1.262       .  A
N1339      O1346   1.262       .  A
C1349      C1350   1.402       .  A
C1349      C1354   1.401       .  A
C1349      H1359   1.084       .  S
C1350      C1355   1.486       .  S
C1350      C1351   1.410       .  A
C1351      C1352   1.400       .  A
C1351      N1356   1.429       .  S
C1352      C1353   1.406       .  A
C1352      H1357   1.084       .  S
C1353      C1354   1.415       .  A
C1354      N1358   1.429       .  S
C1355      C1360   1.412       .  A
C1355      C1364   1.405       .  A
N1356      O1371   1.262       .  A
N1356      O1372   1.262       .  A
N1358      O1369   1.262       .  A
N1358      O1370   1.262       .  A
C1360      C1361   1.400       .  A
C1360      N1365   1.429       .  S
C1361      C1362   1.401       .  A
C1361      H1366   1.084       .  S
C1362      C1363   1.408       .  A
C1363      C1364   1.401       .  A
C1363      N1367   1.429       .  S
C1364      H1368   1.083       .  S
N1365      O1375   1.262       .  A
N1365      O1376   1.262       .  A
N1367      O1373   1.262       .  A
N1367      O1374   1.262       .  A
C1377      C1378   1.402       .  A
C1377      C1382   1.401       .  A
C1377      H1387   1.083       .  S
C1378      C1383   1.483       .  S
C1378      C1379   1.409       .  A
C1379      C1380   1.397       .  A
C1379      N1384   1.430       .  S
C1380      C1381   1.407       .  A
C1380      H1385   1.084       .  S
C1381      C1382   1.415       .  A
C1382      N1386   1.430       .  S
C1383      C1388   1.412       .  A
C1383      C1392   1.405       .  A
N1384      O1399   1.262       .  A
N1384      O1400   1.262       .  A
N1386      O1397   1.262       .  A
N1386      O1398   1.262       .  A
C1388      C1389   1.397       .  A
C1388      N1393   1.429       .  S
C1389      C1390   1.399       .  A
C1389      H1394   1.084       .  S
C1390      C1391   1.406       .  A
C1391      C1392   1.398       .  A
C1391      N1395   1.429       .  S
C1392      H1396   1.083       .  S
N1393      O1403   1.262       .  A
N1393      O1404   1.262       .  A
N1395      O1401   1.262       .  A
N1395      O1402   1.262       .  A
C1405      C1406   1.404       .  A
C1405      C1410   1.401       .  A
C1405      H1415   1.083       .  S
C1406      C1411   1.489       .  S
C1406      C1407   1.410       .  A
C1407      C1408   1.400       .  A
C1407      N1412   1.429       .  S
C1408      C1409   1.407       .  A
C1408      H1413   1.084       .  S
C1409      C1410   1.414       .  A
C1410      N1414   1.429       .  S
C1411      C1416   1.409       .  A
C1411      C1420   1.406       .  A
N1412      O1427   1.262       .  A
N1412      O1428   1.262       .  A
N1414      O1425   1.262       .  A
N1414      O1426   1.262       .  A
C1416      C1417   1.395       .  A
C1416      N1421   1.429       .  S
C1417      C1418   1.406       .  A
C1417      H1422   1.083       .  S
C1418      C1419   1.416       .  A
C1419      C1420   1.405       .  A
C1419      N1423   1.429       .  S
C1420      H1424   1.083       .  S
N1421      O1431   1.262       .  A
N1421      O1432   1.262       .  A
N1423      O1429   1.262       .  A
N1423      O1430   1.262       .  A
C1433      C1434   1.402       .  A
C1433      C1438   1.406       .  A
C1433      H1443   1.084       .  S
C1434      C1439   1.478       .  S
C1434      C1435   1.406       .  A
C1435      C1436   1.398       .  A
C1435      N1440   1.429       .  S
C1436      C1437   1.404       .  A
C1436      H1441   1.084       .  S
C1437      C1438   1.413       .  A
C1438      N1442   1.430       .  S
C1439      C1444   1.410       .  A
C1439      C1448   1.402       .  A
N1440      O1455   1.262       .  A
N1440      O1456   1.261       .  A
N1442      O1453   1.262       .  A
N1442      O1454   1.262       .  A
C1444      C1445   1.401       .  A
C1444      N1449   1.429       .  S
C1445      C1446   1.400       .  A
C1445      H1450   1.084       .  S
C1446      C1447   1.408       .  A
C1447      C1448   1.401       .  A
C1447      N1451   1.429       .  S
C1448      H1452   1.084       .  S
N1449      O1459   1.262       .  A
N1449      O1460   1.262       .  A
N1451      O1457   1.262       .  A
N1451      O1458   1.262       .  A
C1461      C1462   1.405       .  A
C1461      C1466   1.405       .  A
C1461      H1471   1.084       .  S
C1462      C1467   1.488       .  S
C1462      C1463   1.410       .  A
C1463      C1464   1.402       .  A
C1463      N1468   1.430       .  S
C1464      C1465   1.406       .  A
C1464      H1469   1.084       .  S
C1465      C1466   1.411       .  A
C1466      N1470   1.428       .  S
C1467      C1472   1.413       .  A
C1467      C1476   1.404       .  A
N1468      O1483   1.262       .  A
N1468      O1484   1.262       .  A
N1470      O1481   1.262       .  A
N1470      O1482   1.261       .  A
C1472      C1473   1.405       .  A
C1472      N1477   1.429       .  S
C1473      C1474   1.402       .  A
C1473      H1478   1.084       .  S
C1474      C1475   1.407       .  A
C1475      C1476   1.401       .  A
C1475      N1479   1.428       .  S
C1476      H1480   1.084       .  S
N1477      O1487   1.262       .  A
N1477      O1488   1.262       .  A
N1479      O1485   1.262       .  A
N1479      O1486   1.262       .  A
C1489      C1490   1.405       .  A
C1489      C1494   1.400       .  A
C1489      H1499   1.083       .  S
C1490      C1495   1.488       .  S
C1490      C1491   1.413       .  A
C1491      C1492   1.401       .  A
C1491      N1496   1.429       .  S
C1492      C1493   1.402       .  A
C1492      H1497   1.084       .  S
C1493      C1494   1.409       .  A
C1494      N1498   1.429       .  S
C1495      C1500   1.411       .  A
C1495      C1504   1.405       .  A
N1496      O1511   1.262       .  A
N1496      O1512   1.262       .  A
N1498      O1509   1.262       .  A
N1498      O1510   1.262       .  A
C1500      C1501   1.399       .  A
C1500      N1505   1.429       .  S
C1501      C1502   1.404       .  A
C1501      H1506   1.084       .  S
C1502      C1503   1.413       .  A
C1503      C1504   1.402       .  A
C1503      N1507   1.429       .  S
C1504      H1508   1.083       .  S
N1505      O1515   1.262       .  A
N1505      O1516   1.262       .  A
N1507      O1513   1.262       .  A
N1507      O1514   1.262       .  A
C1517      C1518   1.404       .  A
C1517      C1522   1.402       .  A
C1517      H1527   1.083       .  S
C1518      C1523   1.489       .  S
C1518      C1519   1.412       .  A
C1519      C1520   1.401       .  A
C1519      N1524   1.429       .  S
C1520      C1521   1.403       .  A
C1520      H1525   1.084       .  S
C1521      C1522   1.412       .  A
C1522      N1526   1.429       .  S
C1523      C1528   1.413       .  A
C1523      C1532   1.405       .  A
N1524      O1539   1.262       .  A
N1524      O1540   1.262       .  A
N1526      O1537   1.262       .  A
N1526      O1538   1.262       .  A
C1528      C1529   1.402       .  A
C1528      N1533   1.429       .  S
C1529      C1530   1.402       .  A
C1529      H1534   1.084       .  S
C1530      C1531   1.407       .  A
C1531      C1532   1.401       .  A
C1531      N1535   1.429       .  S
C1532      H1536   1.083       .  S
N1533      O1543   1.262       .  A
N1533      O1544   1.262       .  A
N1535      O1541   1.262       .  A
N1535      O1542   1.262       .  A
C1545      C1546   1.402       .  A
C1545      C1550   1.398       .  A
C1545      H1555   1.083       .  S
C1546      C1551   1.487       .  S
C1546      C1547   1.415       .  A
C1547      C1548   1.402       .  A
C1547      N1552   1.430       .  S
C1548      C1549   1.401       .  A
C1548      H1553   1.084       .  S
C1549      C1550   1.410       .  A
C1550      N1554   1.429       .  S
C1551      C1556   1.414       .  A
C1551      C1560   1.404       .  A
N1552      O1567   1.262       .  A
N1552      O1568   1.262       .  A
N1554      O1565   1.262       .  A
N1554      O1566   1.262       .  A
C1556      C1557   1.401       .  A
C1556      N1561   1.429       .  S
C1557      C1558   1.402       .  A
C1557      H1562   1.084       .  S
C1558      C1559   1.409       .  A
C1559      C1560   1.398       .  A
C1559      N1563   1.429       .  S
C1560      H1564   1.083       .  S
N1561      O1571   1.262       .  A
N1561      O1572   1.262       .  A
N1563      O1569   1.262       .  A
N1563      O1570   1.262       .  A
C1573      C1574   1.402       .  A
C1573      C1578   1.400       .  A
C1573      H1583   1.083       .  S
C1574      C1579   1.482       .  S
C1574      C1575   1.410       .  A
C1575      C1576   1.399       .  A
C1575      N1580   1.430       .  S
C1576      C1577   1.404       .  A
C1576      H1581   1.084       .  S
C1577      C1578   1.411       .  A
C1578      N1582   1.431       .  S
C1579      C1584   1.410       .  A
C1579      C1588   1.403       .  A
N1580      O1595   1.262       .  A
N1580      O1596   1.262       .  A
N1582      O1593   1.262       .  A
N1582      O1594   1.262       .  A
C1584      C1585   1.399       .  A
C1584      N1589   1.429       .  S
C1585      C1586   1.403       .  A
C1585      H1590   1.084       .  S
C1586      C1587   1.412       .  A
C1587      C1588   1.400       .  A
C1587      N1591   1.429       .  S
C1588      H1592   1.084       .  S
N1589      O1599   1.262       .  A
N1589      O1600   1.262       .  A
N1591      O1597   1.261       .  A
N1591      O1598   1.262       .  A
C1601      C1602   1.407       .  A
C1601      C1606   1.406       .  A
C1601      H1611   1.083       .  S
C1602      C1607   1.496       .  S
C1602      C1603   1.413       .  A
C1603      C1604   1.401       .  A
C1603      N1608   1.429       .  S
C1604      C1605   1.402       .  A
C1604      H1609   1.084       .  S
C1605      C1606   1.412       .  A
C1606      N1610   1.429       .  S
C1607      C1612   1.412       .  A
C1607      C1616   1.403       .  A
N1608      O1623   1.262       .  A
N1608      O1624   1.262       .  A
N1610      O1621   1.262       .  A
N1610      O1622   1.262       .  A
C1612      C1613   1.407       .  A
C1612      N1617   1.429       .  S
C1613      C1614   1.408       .  A
C1613      H1618   1.084       .  S
C1614      C1615   1.415       .  A
C1615      C1616   1.402       .  A
C1615      N1619   1.429       .  S
C1616      H1620   1.083       .  S
N1617      O1627   1.262       .  A
N1617      O1628   1.262       .  A
N1619      O1625   1.262       .  A
N1619      O1626   1.262       .  A
C1629      C1630   1.404       .  A
C1629      C1634   1.397       .  A
C1629      H1639   1.083       .  S
C1630      C1635   1.484       .  S
C1630      C1631   1.411       .  A
C1631      C1632   1.400       .  A
C1631      N1636   1.430       .  S
C1632      C1633   1.406       .  A
C1632      H1637   1.084       .  S
C1633      C1634   1.410       .  A
C1634      N1638   1.429       .  S
C1635      C1640   1.412       .  A
C1635      C1644   1.406       .  A
N1636      O1651   1.262       .  A
N1636      O1652   1.262       .  A
N1638      O1649   1.262       .  A
N1638      O1650   1.262       .  A
C1640      C1641   1.395       .  A
C1640      N1645   1.430       .  S
C1641      C1642   1.399       .  A
C1641      H1646   1.084       .  S
C1642      C1643   1.408       .  A
C1643      C1644   1.400       .  A
C1643      N1647   1.429       .  S
C1644      H1648   1.083       .  S
N1645      O1655   1.262       .  A
N1645      O1656   1.262       .  A
N1647      O1653   1.262       .  A
N1647      O1654   1.262       .  A
C1657      C1658   1.400       .  A
C1657      C1662   1.401       .  A
C1657      H1667   1.084       .  S
C1658      C1663   1.483       .  S
C1658      C1659   1.408       .  A
C1659      C1660   1.404       .  A
C1659      N1664   1.429       .  S
C1660      C1661   1.409       .  A
C1660      H1665   1.083       .  S
C1661      C1662   1.417       .  A
C1662      N1666   1.428       .  S
C1663      C1668   1.408       .  A
C1663      C1672   1.398       .  A
N1664      O1679   1.262       .  A
N1664      O1680   1.261       .  A
N1666      O1677   1.262       .  A
N1666      O1678   1.262       .  A
C1668      C1669   1.406       .  A
C1668      N1673   1.429       .  S
C1669      C1670   1.411       .  A
C1669      H1674   1.083       .  S
C1670      C1671   1.418       .  A
C1671      C1672   1.400       .  A
C1671      N1675   1.427       .  S
C1672      H1676   1.084       .  S
N1673      O1683   1.262       .  A
N1673      O1684   1.262       .  A
N1675      O1681   1.262       .  A
N1675      O1682   1.262       .  A
C1685      C1686   1.404       .  A
C1685      C1690   1.398       .  A
C1685      H1695   1.083       .  S
C1686      C1691   1.483       .  S
C1686      C1687   1.413       .  A
C1687      C1688   1.398       .  A
C1687      N1692   1.429       .  S
C1688      C1689   1.401       .  A
C1688      H1693   1.084       .  S
C1689      C1690   1.407       .  A
C1690      N1694   1.429       .  S
C1691      C1696   1.413       .  A
C1691      C1700   1.403       .  A
N1692      O1707   1.262       .  A
N1692      O1708   1.262       .  A
N1694      O1705   1.262       .  A
N1694      O1706   1.262       .  A
C1696      C1697   1.400       .  A
C1696      N1701   1.430       .  S
C1697      C1698   1.401       .  A
C1697      H1702   1.084       .  S
C1698      C1699   1.409       .  A
C1699      C1700   1.397       .  A
C1699      N1703   1.429       .  S
C1700      H1704   1.083       .  S
N1701      O1711   1.262       .  A
N1701      O1712   1.262       .  A
N1703      O1709   1.262       .  A
N1703      O1710   1.262       .  A
C1713      C1714   1.401       .  A
C1713      C1718   1.402       .  A
C1713      H1723   1.084       .  S
C1714      C1719   1.478       .  S
C1714      C1715   1.407       .  A
C1715      C1716   1.401       .  A
C1715      N1720   1.428       .  S
C1716      C1717   1.406       .  A
C1716      H1721   1.084       .  S
C1717      C1718   1.412       .  A
C1718      N1722   1.428       .  S
C1719      C1724   1.409       .  A
C1719      C1728   1.402       .  A
N1720      O1735   1.262       .  A
N1720      O1736   1.262       .  A
N1722      O1733   1.261       .  A
N1722      O1734   1.262       .  A
C1724      C1725   1.401       .  A
C1724      N1729   1.428       .  S
C1725      C1726   1.402       .  A
C1725      H1730   1.084       .  S
C1726      C1727   1.408       .  A
C1727      C1728   1.401       .  A
C1727      N1731   1.429       .  S
C1728      H1732   1.084       .  S
N1729      O1739   1.262       .  A
N1729      O1740   1.262       .  A
N1731      O1737   1.262       .  A
N1731      O1738   1.262       .  A
C1741      C1742   1.400       .  A
C1741      C1746   1.401       .  A
C1741      H1751   1.084       .  S
C1742      C1747   1.478       .  S
C1742      C1743   1.406       .  A
C1743      C1744   1.398       .  A
C1743      N1748   1.430       .  S
C1744      C1745   1.411       .  A
C1744      H1749   1.083       .  S
C1745      C1746   1.417       .  A
C1746      N1750   1.428       .  S
C1747      C1752   1.409       .  A
C1747      C1756   1.401       .  A
N1748      O1763   1.262       .  A
N1748      O1764   1.262       .  A
N1750      O1761   1.262       .  A
N1750      O1762   1.262       .  A
C1752      C1753   1.399       .  A
C1752      N1757   1.430       .  S
C1753      C1754   1.407       .  A
C1753      H1758   1.084       .  S
C1754      C1755   1.414       .  A
C1755      C1756   1.399       .  A
C1755      N1759   1.428       .  S
C1756      H1760   1.084       .  S
N1757      O1767   1.262       .  A
N1757      O1768   1.262       .  A
N1759      O1765   1.262       .  A
N1759      O1766   1.262       .  A
