geometry optimzed in LAMMPS
_audit_creation_date              2020-11-30 
_audit_creation_method            'lammps2cif' 
_symmetry_space_group_name_H-M    'P1' 
_symmetry_Int_Tables_number       1 
_symmetry_cell_setting            triclinic 
loop_ 
_symmetry_equiv_pos_as_xyz 
  x,y,z 
_cell_length_a                    27.07974984 
_cell_length_b                    26.89923365137546 
_cell_length_c                    28.60509266366264 
_cell_angle_alpha                 90.10539708663295 
_cell_angle_beta                  89.40103431168644 
_cell_angle_gamma                 121.15028741370743 
loop_ 
_atom_site_label 
_atom_site_type_symbol 
_atom_site_fract_x 
_atom_site_fract_y 
_atom_site_fract_z 
_atom_site_charge 
O1          O  0.86606890  0.50948066  0.04424966    -0.55400
C2          C  0.78685776  0.30542995  0.04547407     0.77200
O3          O  0.82676292  0.52421927  0.31591181    -0.56500
C4          C  0.89972824  0.51595882  0.07671884     0.77200
C5          C  0.85616600  0.36790553  0.26852967     0.79600
Cd6        Cd  0.84629145  0.41047913  0.01876409     1.37500
O7          O  0.79276214  0.34150647  0.07654334    -0.55400
O8          O  0.89289174  0.40003180  0.29950986    -0.54200
C9          C  0.77279689  0.48816233  0.31685314     0.79600
O10         O  0.81247180  0.37371945  0.26921682    -0.56600
O11         O  0.74108053  0.37598762  0.37463386    -0.55000
O12         O  0.92288677  0.48464011  0.07218043    -0.55000
O13         O  0.75612552  0.39060647  0.05131736    -0.54200
O14         O  0.63243166  0.51767276  0.26889769    -0.55400
C15         C  0.61499659  0.33428130  0.30912275     0.77200
O16         O  0.65787011  0.39717922  0.05029668    -0.56500
C17         C  0.67050708  0.51819987  0.24132539     0.77200
C18         C  0.51364801  0.36020586  0.08170246     0.79600
Cd19       Cd  0.62338134  0.43911275  0.32363217     1.37500
O20         O  0.59203485  0.34951320  0.27815314    -0.55400
O21         O  0.53669782  0.33727855  0.05876079    -0.54200
C22         C  0.70378624  0.43426628  0.03009405     0.79600
O23         O  0.52855482  0.41153639  0.06670982    -0.56600
O24         O  0.62718978  0.37369481  0.94751012    -0.55000
O25         O  0.68142738  0.47864286  0.25012719    -0.55000
O26         O  0.69962149  0.45547855  0.37261586    -0.54200
O27         O  0.57683166  0.17574868  0.25333313    -0.55400
C28         C  0.70730828  0.27905846  0.36891344     0.77200
O29         O  0.63977895  0.28195017  0.96072171    -0.56500
C30         C  0.52254235  0.14241272  0.26100572     0.77200
C31         C  0.65401159  0.15047366  0.07573899     0.79600
Cd32       Cd  0.61501198  0.18402281  0.33365023     1.37500
O33         O  0.71378898  0.25180591  0.33475389    -0.55400
O34         O  0.65042704  0.13428806  0.03318768    -0.54200
C35         C  0.59812335  0.28405978  0.97980808     0.79600
O36         O  0.63252432  0.18262326  0.08320686    -0.56600
O37         O  0.68857499  0.27382493  0.04249093    -0.55000
O38         O  0.51045396  0.12495751  0.30348318    -0.55000
O39         O  0.63604488  0.26392963  0.28456962    -0.54200
O40         O  0.18042615  0.47714976  0.01643785    -0.55400
C41         C  0.16055179  0.63958971  0.07301056     0.77200
O42         O  0.26043177  0.69532966  0.32220895    -0.56500
C43         C  0.22481535  0.51199116  0.03874276     0.77200
C44         C  0.13933902  0.49515881  0.25777775     0.79600
Cd45       Cd  0.18988848  0.59728519  0.32464431     1.37500
O46         O  0.21003062  0.65018028  0.06088233    -0.55400
O47         O  0.15952576  0.49103806  0.29669820    -0.54200
C48         C  0.28659394  0.69079683  0.35769723     0.79600
O49         O  0.12968654  0.53761655  0.25729619    -0.56600
O50         O  0.11927645  0.59697293  0.05032961    -0.55000
O51         O  0.26815034  0.62961553  0.26902100    -0.55000
O52         O  0.27609625  0.62678539  0.99030916    -0.54200
O53         O  0.40954620  0.52784594  0.06741388    -0.55400
C54         C  0.41900022  0.67435402  0.01370919     0.77200
O55         O  0.51148809  0.60292559  0.25570623    -0.56500
C56         C  0.36131825  0.47965863  0.07451942     0.77200
C57         C  0.33908787  0.60417459  0.28108222     0.79600
Cd58       Cd  0.39519302  0.56570126  0.99789182     1.37500
O59         O  0.44303326  0.65646648  0.04176978    -0.55400
O60         O  0.32470140  0.56563311  0.04461273    -0.54200
C61         C  0.52204941  0.64734766  0.23093646     0.79600
O62         O  0.34588122  0.56198131  0.27208050    -0.56600
O63         O  0.45336422  0.69093237  0.35325157    -0.55000
O64         O  0.33179441  0.46093322  0.03750383    -0.55000
O65         O  0.49258288  0.66948332  0.24247361    -0.54200
O66         O  0.46569471  0.87091484  0.06547608    -0.55400
C67         C  0.31895116  0.72339150  0.97201647     0.77200
O68         O  0.43149565  0.89132867  0.28167106    -0.56500
C69         C  0.51115478  0.86664270  0.06296643     0.77200
C70         C  0.50470295  0.77462570  0.30789153     0.79600
Cd71       Cd  0.41883892  0.82323120  0.99325935     1.37500
O72         O  0.32325057  0.75270296  0.00882256    -0.55400
O73         O  0.40532838  0.74730935  0.04266077    -0.54200
C74         C  0.38363909  0.85337697  0.26263403     0.79600
O75         O  0.53773908  0.82569263  0.32211145    -0.56600
O76         O  0.38436390  0.73052080  0.36412800    -0.55000
O77         O  0.52103686  0.85479254  0.02209044    -0.55000
O78         O  0.36506754  0.80222032  0.27687747    -0.54200
C79         C  0.87006497  0.34082305  0.22367856    -0.00100
C80         C  0.66823877  0.12307041  0.11853576    -0.00100
C81         C  0.90634791  0.55111023  0.12331144    -0.00100
C82         C  0.68754138  0.54955077  0.19246705    -0.00100
C83         C  0.55418203  0.66302080  0.18259358    -0.00100
C84         C  0.55072897  0.87748333  0.10769701    -0.00100
C85         C  0.14970945  0.66053192  0.12174709    -0.00100
C86         C  0.36024137  0.86794516  0.21737009    -0.00100
C87         C  0.48060640  0.11540424  0.21739738    -0.00100
C88         C  0.48128563  0.33559389  0.13077997    -0.00100
C89         C  0.12588463  0.45333120  0.21255914    -0.00100
C90         C  0.34389611  0.44877347  0.12566948    -0.00100
C91         C  0.27481185  0.44627145  0.19937341     0.26000
C92         C  0.28206407  0.43804786  0.15023188    -0.22100
C93         C  0.23162069  0.42516975  0.12492047     0.20900
C94         C  0.18253634  0.42659819  0.14496082     0.26000
C95         C  0.17611507  0.43785759  0.19367283    -0.22000
C96         C  0.22491192  0.44613503  0.21982076     0.20900
F97         F  0.22635813  0.45615864  0.26627820    -0.12000
F98         F  0.31835356  0.45809696  0.22887105    -0.14300
F99         F  0.14289456  0.42135159  0.11391624    -0.14300
F100        F  0.22895067  0.41100985  0.07918789    -0.12000
C101        C  0.39198500  0.34057149  0.16985073     0.26000
C102        C  0.42223411  0.33807658  0.12963098    -0.22100
C103        C  0.39879004  0.34460028  0.08716432     0.20900
C104        C  0.36348545  0.36981191  0.08569014     0.26000
C105        C  0.35050129  0.39187538  0.12659392    -0.22000
C106        C  0.35991886  0.36976465  0.16882363     0.20900
F107        F  0.34318345  0.38103259  0.21021611    -0.12000
F108        F  0.40084547  0.32382370  0.21198821    -0.14300
F109        F  0.34504234  0.37481349  0.04316253    -0.13700
F110        F  0.41037084  0.32726036  0.04602305    -0.12000
C111        C  0.47208326  0.17952245  0.14299559     0.26000
C112        C  0.47545644  0.16921530  0.19237412    -0.22100
C113        C  0.47535251  0.21388808  0.21994749     0.20900
C114        C  0.47575710  0.26402451  0.20079599     0.26000
C115        C  0.47319635  0.27409824  0.15170227    -0.22000
C116        C  0.46956781  0.22826263  0.12407393     0.20900
F117        F  0.46255767  0.22923322  0.07729616    -0.12000
F118        F  0.47095246  0.14319008  0.11032876    -0.14300
F119        F  0.48074190  0.30437785  0.23190983    -0.14300
F120        F  0.47542115  0.21015119  0.26722361    -0.12000
C121        C  0.35797469  0.96163665  0.18730682     0.26000
C122        C  0.36338486  0.92926405  0.22427402    -0.22100
C123        C  0.37940977  0.96023959  0.26733369     0.20900
C124        C  0.40743909  0.02187372  0.26881401     0.26000
C125        C  0.42041221  0.05588687  0.22732497    -0.22000
C126        C  0.38428168  0.02334881  0.18970449     0.20900
F127        F  0.37632825  0.05144481  0.15396983    -0.12000
F128        F  0.32744574  0.93476209  0.14873325    -0.14300
F129        F  0.41358940  0.04610736  0.31146752    -0.14300
F130        F  0.36643911  0.93127207  0.30871625    -0.12000
C131        C  0.08308955  0.50113414  0.15801748     0.26000
C132        C  0.13059146  0.49837178  0.17531411    -0.22100
C133        C  0.18539269  0.55032360  0.17049172     0.20900
C134        C  0.19031631  0.60276506  0.15852684     0.26000
C135        C  0.14110628  0.60660077  0.14831315    -0.22000
C136        C  0.08833836  0.55330569  0.14507508     0.20900
F137        F  0.04270458  0.54940662  0.12256552    -0.12000
F138        F  0.03162064  0.45449467  0.14821857    -0.14300
F139        F  0.24470846  0.64938144  0.15390312    -0.14300
F140        F  0.23471842  0.55266574  0.18311368    -0.12000
C141        C  0.20867652  0.72283122  0.19679443     0.26000
C142        C  0.20115110  0.71801496  0.14677308    -0.22100
C143        C  0.24389655  0.76660924  0.12153561     0.20900
C144        C  0.29233568  0.81431146  0.14382776     0.26000
C145        C  0.30019250  0.81893297  0.19383714    -0.22000
C146        C  0.25494353  0.77245680  0.21923539     0.20900
F147        F  0.25544836  0.77410782  0.26656863    -0.12000
F148        F  0.17335738  0.67748828  0.22515906    -0.14300
F149        F  0.33399489  0.85434336  0.11496900    -0.14300
F150        F  0.24034783  0.76756380  0.07431881    -0.12000
C151        C  0.45617798  0.82152913  0.15461110     0.26000
C152        C  0.50783543  0.87546529  0.14533422    -0.22100
C153        C  0.50767998  0.92565823  0.15846886     0.20900
C154        C  0.45962995  0.92346954  0.17772463     0.26000
C155        C  0.40806927  0.87115980  0.18537932    -0.22000
C156        C  0.40785588  0.81946065  0.17412629     0.20900
F157        F  0.36124262  0.76608429  0.18352756    -0.12000
F158        F  0.44987292  0.77037090  0.14041343    -0.14300
F159        F  0.46561979  0.97360742  0.19150935    -0.14300
F160        F  0.55273272  0.97847279  0.15028059    -0.12000
C161        C  0.50334572  0.56086310  0.14423999     0.26000
C162        C  0.50337135  0.61138921  0.15605145    -0.22100
C163        C  0.44843150  0.60629830  0.15697662     0.20900
C164        C  0.39719412  0.55211451  0.15873489     0.26000
C165        C  0.39689171  0.49930250  0.15190357    -0.22000
C166        C  0.45270024  0.50677598  0.14347848     0.20900
F167        F  0.45895077  0.46606165  0.12110241    -0.12000
F168        F  0.54956396  0.56355848  0.12342401    -0.14300
F169        F  0.34774024  0.55328789  0.15808527    -0.14300
F170        F  0.44426978  0.65439451  0.16025161    -0.12000
C171        C  0.56000472  0.73247997  0.11205502     0.26000
C172        C  0.56584582  0.72387664  0.16067461    -0.22100
C173        C  0.57611429  0.77122576  0.18920256     0.20900
C174        C  0.57154644  0.81853091  0.17241503     0.26000
C175        C  0.56388801  0.82713401  0.12388502    -0.22000
C176        C  0.56051043  0.78282459  0.09425891     0.20900
F177        F  0.55658308  0.78677425  0.04745726    -0.12000
F178        F  0.55212265  0.69111198  0.08081471    -0.14300
F179        F  0.56845442  0.85242756  0.20605051    -0.14300
F180        F  0.58834945  0.77113509  0.23504432    -0.12000
C181        C  0.63731977  0.44683929  0.15724805     0.26000
C182        C  0.63566652  0.49783608  0.16742646    -0.22100
C183        C  0.57979317  0.48865695  0.17700602     0.20900
C184        C  0.53014960  0.43436074  0.17486159     0.26000
C185        C  0.53129303  0.38549367  0.15919050    -0.22000
C186        C  0.58689438  0.39211039  0.15567909     0.20900
F187        F  0.59241861  0.34595940  0.14506418    -0.12000
F188        F  0.68786830  0.44788798  0.15422157    -0.14300
F189        F  0.48321489  0.43045509  0.19506430    -0.14300
F190        F  0.57270303  0.52938556  0.19857004    -0.12000
C191        C  0.67101409  0.63025175  0.23079759     0.26000
C192        C  0.68141868  0.60594902  0.19034621    -0.22100
C193        C  0.67244611  0.62721081  0.14764276     0.20900
C194        C  0.64136498  0.65669196  0.14603660     0.26000
C195        C  0.61167760  0.65965992  0.18601788    -0.22000
C196        C  0.63519779  0.65464999  0.22897961     0.20900
F197        F  0.62421233  0.67344412  0.26960469    -0.12000
F198        F  0.69317931  0.62840130  0.27264440    -0.14300
F199        F  0.63245494  0.67288868  0.10368024    -0.14300
F200        F  0.68865144  0.61544442  0.10638709    -0.12000
C201        C  0.00157564  0.62764828  0.07895189     0.26000
C202        C  0.96941451  0.60735359  0.12149179    -0.22100
C203        C  0.00139712  0.63833771  0.16116786     0.20900
C204        C  0.06196420  0.66244797  0.16173625     0.26000
C205        C  0.09247558  0.66321745  0.12075966    -0.22000
C206        C  0.06244118  0.65688412  0.07876233     0.20900
F207        F  0.09113814  0.67602610  0.03733590    -0.12000
F208        F  0.97454723  0.61853771  0.03738157    -0.14300
F209        F  0.08870386  0.68129414  0.20314175    -0.14300
F210        F  0.97484986  0.63714367  0.20176610    -0.12000
C211        C  0.79432366  0.57021362  0.20295042     0.26000
C212        C  0.74968745  0.56222529  0.17270922    -0.22100
C213        C  0.76303818  0.56113295  0.12421590     0.20900
C214        C  0.81568454  0.56578549  0.10792117     0.26000
C215        C  0.85634491  0.56500606  0.13871335    -0.22000
C216        C  0.84343717  0.56805481  0.18717616     0.20900
F217        F  0.87586604  0.56428705  0.22109920    -0.12000
F218        F  0.79015796  0.57871578  0.24915323    -0.14300
F219        F  0.82581465  0.57119094  0.06126338    -0.14300
F220        F  0.72308788  0.55043017  0.09149255    -0.12000
C221        C  0.55304425  0.07746051  0.21432756     0.26000
C222        C  0.51612686  0.09248325  0.18977402    -0.22100
C223        C  0.51114561  0.07665788  0.14224290     0.20900
C224        C  0.55643778  0.07483148  0.12062938     0.26000
C225        C  0.60962264  0.09553001  0.14490034    -0.22000
C226        C  0.60392576  0.08807863  0.19339607     0.20900
F227        F  0.64627694  0.09185427  0.22063972    -0.12000
F228        F  0.54240067  0.05779056  0.25923987    -0.14300
F229        F  0.54939892  0.05494480  0.07600565    -0.14300
F230        F  0.46085177  0.05201421  0.11890025    -0.12000
C231        C  0.67579230  0.03306701  0.14409615     0.26000
C232        C  0.67326430  0.06728971  0.10741386    -0.22100
C233        C  0.65705231  0.03730848  0.06418612     0.20900
C234        C  0.62353374  0.97586856  0.06229612     0.26000
C235        C  0.60855441  0.94076047  0.10336153    -0.22000
C236        C  0.64501419  0.97119579  0.14188808     0.20900
F237        F  0.64829953  0.94263856  0.17923111    -0.12000
F238        F  0.70662652  0.05893567  0.18298593    -0.14300
F239        F  0.60958362  0.95190315  0.01925446    -0.14300
F240        F  0.68016641  0.06581574  0.02338479    -0.12000
C241        C  0.93332312  0.44812417  0.19934432     0.26000
C242        C  0.88216408  0.39303954  0.19128909    -0.22100
C243        C  0.83714510  0.39625874  0.16933250     0.20900
C244        C  0.84374470  0.44869533  0.15501292     0.26000
C245        C  0.89734531  0.50167104  0.15746195    -0.22000
C246        C  0.94058958  0.50011433  0.18315445     0.20900
F247        F  0.98896099  0.54783930  0.19757454    -0.12000
F248        F  0.97515550  0.45422349  0.22858957    -0.14300
F249        F  0.79789123  0.44662221  0.13418196    -0.14300
F250        F  0.78414441  0.35004548  0.16312876    -0.12000
C251        C  0.96599735  0.35585187  0.26613814     0.26000
C252        C  0.93143985  0.34298553  0.22549414    -0.22100
C253        C  0.96148614  0.34447124  0.18366382     0.20900
C254        C  0.02216362  0.36523473  0.18227038     0.26000
C255        C  0.05913254  0.39866279  0.21954439    -0.22000
C256        C  0.02792930  0.38526477  0.26325004     0.20900
F257        F  0.05664147  0.39951972  0.30422934    -0.12000
F258        F  0.94083133  0.34217188  0.30915168    -0.14300
F259        F  0.04467003  0.36295538  0.14060863    -0.14300
F260        F  0.93351047  0.33158381  0.14222833    -0.12000
C261        C  0.71162458  0.21375919  0.17780797     0.26000
C262        C  0.72041186  0.17520606  0.14944648    -0.22100
C263        C  0.77786881  0.18639847  0.15259487     0.20900
C264        C  0.82284949  0.23386491  0.17947018     0.26000
C265        C  0.81563953  0.27675336  0.20409117    -0.22000
C266        C  0.75532432  0.25828115  0.20669749     0.20900
F267        F  0.73679838  0.28584967  0.23475736    -0.12000
F268        F  0.65935037  0.20921744  0.17809173    -0.14300
F269        F  0.87240894  0.23362674  0.18374495    -0.14300
F270        F  0.79183709  0.15138961  0.12920599    -0.12000
O271        O  0.81468675  0.46970866  0.41630507    -0.55400
C272        C  0.75268345  0.33662700  0.37893210     0.77200
O273        O  0.81309615  0.49075684  0.63819782    -0.56500
C274        C  0.86151134  0.51786072  0.41966197     0.77200
C275        C  0.88123161  0.37010930  0.58950352     0.79600
Cd276      Cd  0.82938848  0.43838870  0.33921596     1.37500
O277        O  0.80503142  0.35035892  0.38000655    -0.55400
O278        O  0.91863759  0.41060866  0.61627101    -0.54200
C279        C  0.76544983  0.44763482  0.62597768     0.79600
O280        O  0.83018460  0.35743834  0.59783708    -0.56600
O281        O  0.75424821  0.35995829  0.69350434    -0.55000
O282        O  0.89368107  0.53157662  0.38291089    -0.55000
O283        O  0.75440521  0.43754302  0.30081740    -0.54200
O284        O  0.60771470  0.46209415  0.60352999    -0.55400
C285        C  0.58979226  0.31650991  0.69165036     0.77200
O286        O  0.71654891  0.53112352  0.33294543    -0.56500
C287        C  0.65135925  0.51457545  0.60233832     0.77200
C288        C  0.53268111  0.38506327  0.39739474     0.79600
Cd289      Cd  0.60945279  0.42375476  0.67486393     1.37500
O290        O  0.56240851  0.32334755  0.65845479    -0.55400
O291        O  0.51619348  0.36757947  0.35596276    -0.54200
C292        C  0.73261908  0.49669655  0.34532009     0.79600
O293        O  0.58269128  0.43083516  0.39874313    -0.56600
O294        O  0.64461982  0.36988067  0.34029846    -0.55000
O295        O  0.67116586  0.53345539  0.64296259    -0.55000
O296        O  0.66496982  0.40579736  0.62111281    -0.54200
O297        O  0.57929460  0.21154478  0.58260073    -0.55400
C298        C  0.71948594  0.27346785  0.65342679     0.77200
O299        O  0.58286342  0.24683901  0.34873229    -0.56500
C300        C  0.52985374  0.16532542  0.58067534     0.77200
C301        C  0.66068077  0.13725620  0.40634568     0.79600
Cd302      Cd  0.61366178  0.19173478  0.66076269     1.37500
O303        O  0.68181709  0.28151756  0.63515130    -0.55400
O304        O  0.69183335  0.16405188  0.37084021    -0.54200
C305        C  0.60807952  0.27808045  0.31226671     0.79600
O306        O  0.60655160  0.11778883  0.39968761    -0.56600
O307        O  0.65726985  0.26010043  0.38699642    -0.55000
O308        O  0.52166528  0.12913380  0.61340807    -0.55000
O309        O  0.62497055  0.25988289  0.71775737    -0.54200
O310        O  0.25385803  0.56507511  0.32357223    -0.55400
C311        C  0.15840405  0.65046580  0.40387004     0.77200
O312        O  0.21220993  0.68725666  0.63068354    -0.56500
C313        C  0.28339734  0.59699936  0.28896502     0.77200
C314        C  0.17108847  0.50885920  0.59166069     0.79600
Cd315      Cd  0.19492734  0.59859948  0.66586706     1.37500
O316        O  0.15547514  0.66639443  0.36232093    -0.55400
O317        O  0.22083563  0.55234449  0.59930460    -0.54200
C318        C  0.26053557  0.69540654  0.61740980     0.79600
O319        O  0.13331632  0.50219095  0.62272127    -0.56600
O320        O  0.16327726  0.60516386  0.40429795    -0.55000
O321        O  0.28049583  0.63286761  0.70688409    -0.55000
O322        O  0.26748017  0.64120125  0.37712983    -0.54200
O323        O  0.42507126  0.57918327  0.39353672    -0.55400
C324        C  0.50028922  0.72439595  0.33179281     0.77200
O325        O  0.52582776  0.63581509  0.64096036    -0.56500
C326        C  0.38316201  0.52648941  0.39364583     0.77200
C327        C  0.32033013  0.57598847  0.70843889     0.79600
Cd328      Cd  0.43987589  0.61060278  0.31111463     1.37500
O329        O  0.53214712  0.70435704  0.32125800    -0.55400
O330        O  0.38202058  0.65067365  0.29450949    -0.54200
C331        C  0.50857498  0.64843820  0.60365724     0.79600
O332        O  0.32397969  0.54864189  0.67297570    -0.56600
O333        O  0.40713626  0.65276820  0.64034582    -0.55000
O334        O  0.36891056  0.50666395  0.35245589    -0.55000
O335        O  0.45412295  0.62752368  0.60420431    -0.54200
O336        O  0.51669083  0.89936363  0.39049812    -0.55400
C337        C  0.34280333  0.73849187  0.36873073     0.77200
O338        O  0.34690875  0.86471912  0.61706594    -0.56500
C339        C  0.52172364  0.86427604  0.41782936     0.77200
C340        C  0.42739420  0.74341680  0.66370748     0.79600
Cd341      Cd  0.44676443  0.82465010  0.33552717     1.37500
O342        O  0.35341519  0.79010287  0.37214712    -0.55400
O343        O  0.46200700  0.76545217  0.28353948    -0.54200
C344        C  0.37852393  0.88881565  0.58137179     0.79600
O345        O  0.44809712  0.77420878  0.62638785    -0.56600
O346        O  0.35787202  0.76141108  0.60260493    -0.55000
O347        O  0.48849195  0.81106940  0.40861721    -0.55000
O348        O  0.43181091  0.90324462  0.58697458    -0.54200
C349        C  0.89544697  0.35524392  0.53956821    -0.00100
C350        C  0.68363064  0.13050744  0.45682418    -0.00100
C351        C  0.88318194  0.54965341  0.46829376    -0.00100
C352        C  0.67376884  0.54929308  0.55299094    -0.00100
C353        C  0.54288419  0.67079427  0.55486262    -0.00100
C354        C  0.55303539  0.88395503  0.46572443    -0.00100
C355        C  0.14691836  0.67477667  0.45210573    -0.00100
C356        C  0.35648765  0.89954577  0.53257191    -0.00100
C357        C  0.49280538  0.14794134  0.53436674    -0.00100
C358        C  0.49441623  0.36014667  0.44385076    -0.00100
C359        C  0.15451251  0.48460464  0.54025031    -0.00100
C360        C  0.36131880  0.48873759  0.44105033    -0.00100
C361        C  0.27913299  0.44912040  0.50851875     0.26000
C362        C  0.29630501  0.46754557  0.46072834    -0.22100
C363        C  0.25876017  0.48167871  0.43803228     0.20900
C364        C  0.21271164  0.48364346  0.46185117     0.26000
C365        C  0.20030950  0.47259642  0.51129157    -0.22000
C366        C  0.23434130  0.45311640  0.53296527     0.20900
F367        F  0.22564999  0.43906620  0.57906926    -0.12000
F368        F  0.30837770  0.43020935  0.53359464    -0.14300
F369        F  0.18456519  0.50298911  0.43587099    -0.14300
F370        F  0.26814162  0.49730490  0.39233737    -0.12000
C371        C  0.38817514  0.35311922  0.44406106     0.26000
C372        C  0.44967845  0.38299804  0.43786917    -0.22100
C373        C  0.47514783  0.44328419  0.42731652     0.20900
C374        C  0.44481542  0.47155776  0.42428593     0.26000
C375        C  0.38506247  0.44492794  0.43498425    -0.22000
C376        C  0.35674227  0.38374862  0.44376886     0.20900
F377        F  0.29926349  0.35356391  0.45306903    -0.12000
F378        F  0.35805533  0.29488565  0.45094116    -0.14300
F379        F  0.47851402  0.52971553  0.41712492    -0.13700
F380        F  0.53309357  0.47966695  0.42442644    -0.12000
C381        C  0.52801898  0.24340921  0.47900223     0.26000
C382        C  0.48757353  0.20176773  0.51128236    -0.22100
C383        C  0.44327882  0.21451931  0.52182802     0.20900
C384        C  0.44165868  0.26300098  0.50006450     0.26000
C385        C  0.47624075  0.29407565  0.45942390    -0.22000
C386        C  0.51359221  0.27393528  0.44663427     0.20900
F387        F  0.54744350  0.29561508  0.40807976    -0.12000
F388        F  0.58531676  0.26635260  0.48575143    -0.14300
F389        F  0.40824406  0.28078302  0.52077147    -0.14300
F390        F  0.40495017  0.18427445  0.55665334    -0.12000
C391        C  0.36838977  0.99641703  0.49541356     0.26000
C392        C  0.36490619  0.96327327  0.53526948    -0.22100
C393        C  0.37634254  0.99491029  0.57805593     0.20900
C394        C  0.40758591  0.05656699  0.57876017     0.26000
C395        C  0.43163878  0.08901908  0.53711705    -0.22000
C396        C  0.40395685  0.05829924  0.49571735     0.20900
F397        F  0.41685829  0.08733987  0.45441580    -0.12000
F398        F  0.34616857  0.96985669  0.45419856    -0.14300
F399        F  0.41520611  0.08370775  0.62039606    -0.14300
F400        F  0.35780601  0.96706524  0.61975269    -0.12000
C401        C  0.11433357  0.55238619  0.53568755     0.26000
C402        C  0.15730211  0.54022070  0.52112275    -0.22100
C403        C  0.20911613  0.58928718  0.50389987     0.20900
C404        C  0.20919368  0.63868771  0.48864823     0.26000
C405        C  0.15708687  0.63903376  0.48890620    -0.22000
C406        C  0.11413401  0.60068495  0.51998032     0.20900
F407        F  0.07300397  0.61056966  0.53662351    -0.12000
F408        F  0.07680062  0.52191763  0.57033663    -0.14300
F409        F  0.25752714  0.68229954  0.46782328    -0.14300
F410        F  0.26008674  0.59103050  0.50329847    -0.12000
C411        C  0.19605600  0.75778425  0.51789089     0.26000
C412        C  0.19224184  0.74130799  0.46943316    -0.22100
C413        C  0.23841237  0.78413743  0.44177660     0.20900
C414        C  0.28658529  0.83580319  0.46126017     0.26000
C415        C  0.29404839  0.84892553  0.51076064    -0.22000
C416        C  0.24505098  0.80855881  0.53773970     0.20900
F417        F  0.24366387  0.81725666  0.58425497    -0.12000
F418        F  0.15292519  0.72241629  0.54785945    -0.14300
F419        F  0.32834277  0.87147544  0.43041573    -0.14300
F420        F  0.23825265  0.77606139  0.39499536    -0.12000
C421        C  0.45158058  0.84106902  0.49975562     0.26000
C422        C  0.50559958  0.89182031  0.48903123    -0.22100
C423        C  0.50355641  0.94252477  0.47890957     0.20900
C424        C  0.45348952  0.94435093  0.48473379     0.26000
C425        C  0.40211013  0.89578745  0.50143401    -0.22000
C426        C  0.40101182  0.84238617  0.50272164     0.20900
F427        F  0.35177306  0.79183581  0.51372480    -0.12000
F428        F  0.44572399  0.78792380  0.50243820    -0.14300
F429        F  0.45561596  0.99225156  0.46829007    -0.14300
F430        F  0.54705911  0.98833114  0.45580053    -0.12000
C431        C  0.47587199  0.56580356  0.53322425     0.26000
C432        C  0.49340478  0.62458689  0.52433063    -0.22100
C433        C  0.45230273  0.63399244  0.50189469     0.20900
C434        C  0.40351739  0.58763324  0.48184988     0.26000
C435        C  0.39774424  0.53236787  0.47948697    -0.22000
C436        C  0.42907793  0.52080033  0.51182757     0.20900
F437        F  0.41467467  0.46605328  0.52351309    -0.12000
F438        F  0.49890678  0.55186667  0.56876677    -0.14300
F439        F  0.36560093  0.59823185  0.45990505    -0.14300
F440        F  0.45574739  0.68606809  0.50204624    -0.12000
C441        C  0.57822542  0.75326266  0.48844949     0.26000
C442        C  0.56026057  0.73487362  0.53597060    -0.22100
C443        C  0.55161626  0.77454246  0.56232282     0.20900
C444        C  0.55187827  0.82313832  0.54120345     0.26000
C445        C  0.56109224  0.83550541  0.49201748    -0.22000
C446        C  0.57796236  0.80112659  0.46738266     0.20900
F447        F  0.59319388  0.81275239  0.42154706    -0.12000
F448        F  0.59485707  0.72436506  0.46028183    -0.14300
F449        F  0.54070837  0.85684487  0.56937531    -0.14300
F450        F  0.54273472  0.76655865  0.60907726    -0.12000
C451        C  0.63899014  0.45663207  0.50373190     0.26000
C452        C  0.62882236  0.49947401  0.52162401    -0.22100
C453        C  0.56958636  0.48204124  0.52817361     0.20900
C454        C  0.52527369  0.42861749  0.51374757     0.26000
C455        C  0.53725177  0.39587352  0.48323937    -0.22000
C456        C  0.59444386  0.40609703  0.48467007     0.20900
F457        F  0.61078665  0.37304088  0.46169437    -0.12000
F458        F  0.69108137  0.46113232  0.50611823    -0.14300
F459        F  0.47058282  0.40998557  0.52840471    -0.14300
F460        F  0.55509860  0.50996915  0.55929430    -0.12000
C461        C  0.66265568  0.63501943  0.58788767     0.26000
C462        C  0.66192890  0.60168091  0.54895874    -0.22100
C463        C  0.63712447  0.60931838  0.50783460     0.20900
C464        C  0.60405396  0.63554817  0.50875269     0.26000
C465        C  0.59570576  0.66006344  0.55010297    -0.22000
C466        C  0.63139447  0.66463867  0.58801391     0.20900
F467        F  0.63537277  0.69675664  0.62595217    -0.12000
F468        F  0.69292593  0.63862578  0.62645723    -0.14300
F469        F  0.57341869  0.62805107  0.46940785    -0.14300
F470        F  0.63399604  0.58165595  0.46738958    -0.12000
C471        C  0.98206964  0.56633861  0.44133885     0.26000
C472        C  0.95183690  0.59276753  0.45961534    -0.22100
C473        C  0.98811371  0.65213845  0.47252399     0.20900
C474        C  0.05053881  0.68168537  0.46796252     0.26000
C475        C  0.07913799  0.65253835  0.45125133    -0.22000
C476        C  0.04129752  0.59401620  0.43776855     0.20900
F477        F  0.06061638  0.55818954  0.42586244    -0.12000
F478        F  0.95405805  0.50855320  0.43118866    -0.14300
F479        F  0.08235879  0.73757884  0.48229211    -0.14300
F480        F  0.96404249  0.68076061  0.49199431    -0.12000
C481        C  0.78189130  0.56785220  0.56112229     0.26000
C482        C  0.73877870  0.56850867  0.53364607    -0.22100
C483        C  0.75555869  0.58075916  0.48500829     0.20900
C484        C  0.80418972  0.58058878  0.46479740     0.26000
C485        C  0.84245453  0.57141766  0.49141324    -0.22000
C486        C  0.83220815  0.57030436  0.54092771     0.20900
F487        F  0.87086717  0.57046009  0.57068215    -0.12000
F488        F  0.77635151  0.56573137  0.60825354    -0.14300
F489        F  0.81337432  0.58937341  0.41804223    -0.14300
F490        F  0.72343651  0.58987151  0.45469080    -0.12000
C491        C  0.54009336  0.08549156  0.52431409     0.26000
C492        C  0.53089548  0.12959609  0.50624580    -0.22100
C493        C  0.57364025  0.16798815  0.47567982     0.20900
C494        C  0.62964677  0.17980378  0.48102361     0.26000
C495        C  0.63645385  0.13196240  0.48831756    -0.22000
C496        C  0.59099712  0.08558507  0.51434465     0.20900
F497        F  0.59657682  0.04477573  0.53662827    -0.12000
F498        F  0.50216080  0.04444106  0.55461975    -0.14300
F499        F  0.67415460  0.23032765  0.46421437    -0.14300
F500        F  0.55869383  0.18031948  0.43406378    -0.12000
C501        C  0.67799670  0.03894885  0.49826477     0.26000
C502        C  0.67880361  0.06868213  0.45711978    -0.22100
C503        C  0.66682951  0.03441633  0.41599755     0.20900
C504        C  0.63581407  0.97300510  0.41837362     0.26000
C505        C  0.61271537  0.94387970  0.46162334    -0.22000
C506        C  0.64167116  0.97751007  0.50141941     0.20900
F507        F  0.63158174  0.95238858  0.54414581    -0.12000
F508        F  0.70440405  0.06838539  0.53750442    -0.14300
F509        F  0.62639928  0.94288289  0.37805125    -0.14300
F510        F  0.68446211  0.05951500  0.37320447    -0.12000
C511        C  0.93394210  0.46240403  0.52613338     0.26000
C512        C  0.89051825  0.40431910  0.51541235    -0.22100
C513        C  0.83523903  0.39613131  0.50503366     0.20900
C514        C  0.82793382  0.44382717  0.50127900     0.26000
C515        C  0.87638245  0.50068523  0.50159585    -0.22000
C516        C  0.92348765  0.50731734  0.52591641     0.20900
F517        F  0.96289497  0.55919813  0.54460247    -0.12000
F518        F  0.98349779  0.47452828  0.54527034    -0.14300
F519        F  0.77403979  0.43447854  0.49596596    -0.14300
F520        F  0.78682434  0.34266929  0.50381418    -0.12000
C521        C  0.99213699  0.36716760  0.57481459     0.26000
C522        C  0.96066857  0.36844293  0.53561130    -0.22100
C523        C  0.99513448  0.39395341  0.49469686     0.20900
C524        C  0.05623199  0.42383127  0.49499991     0.26000
C525        C  0.08832312  0.43168312  0.53619530    -0.22000
C526        C  0.05397399  0.39691870  0.57481083     0.20900
F527        F  0.07982509  0.39218028  0.61352552    -0.12000
F528        F  0.96336057  0.33903908  0.61448178    -0.14300
F529        F  0.08342228  0.45071251  0.45485797    -0.14300
F530        F  0.97122390  0.39868169  0.45501622    -0.12000
C531        C  0.79155523  0.22740691  0.44961419     0.26000
C532        C  0.74508463  0.18412339  0.47730292    -0.22100
C533        C  0.75431070  0.19601128  0.52674805     0.20900
C534        C  0.80411646  0.24596476  0.54602536     0.26000
C535        C  0.84728362  0.29182997  0.51816231    -0.22000
C536        C  0.83947921  0.27939417  0.46899699     0.20900
F537        F  0.87646756  0.31923478  0.43789024    -0.12000
F538        F  0.79180981  0.22071048  0.40277472    -0.14300
F539        F  0.80897481  0.24919818  0.59317997    -0.14300
F540        F  0.71305450  0.16098270  0.55815104    -0.12000
O541        O  0.84241538  0.45051670  0.74362843    -0.55400
C542        C  0.76357148  0.32036288  0.68120542     0.77200
O543        O  0.78597795  0.44546608  0.98917682    -0.56500
C544        C  0.86056346  0.50483033  0.74456348     0.77200
C545        C  0.85750331  0.35678620  0.92960543     0.79600
Cd546      Cd  0.84264455  0.42525441  0.66204570     1.37500
O547        O  0.81308647  0.32756841  0.68822051    -0.55400
O548        O  0.81633881  0.36505640  0.93992809    -0.54200
C549        C  0.75084604  0.42407932  0.02369257     0.79600
O550        O  0.89759852  0.37844001  0.95988423    -0.56600
O551        O  0.83174750  0.31279449  0.02545545    -0.55000
O552        O  0.87914667  0.52826959  0.70449174    -0.55000
O553        O  0.76517919  0.40394294  0.61012949    -0.54200
O554        O  0.59544170  0.49195269  0.94280457    -0.55400
C555        C  0.58623151  0.32741800  0.96404857     0.77200
O556        O  0.70927977  0.46384548  0.68056393    -0.56500
C557        C  0.64818774  0.51817644  0.92763902     0.77200
C558        C  0.51804395  0.37044086  0.74867185     0.79600
Cd559      Cd  0.60134355  0.42238992  0.00169874     1.37500
O560        O  0.53944272  0.32518994  0.97374593    -0.55400
O561        O  0.50477879  0.35294079  0.70677521    -0.54200
C562        C  0.71169128  0.44088990  0.64192162     0.79600
O563        O  0.56884113  0.41635528  0.75190387    -0.56600
O564        O  0.62931403  0.36098379  0.71293693    -0.55000
O565        O  0.68025778  0.50703825  0.95138718    -0.55000
O566        O  0.70476513  0.47718417  0.01165628    -0.54200
O567        O  0.57722340  0.18333665  0.92049615    -0.55400
C568        C  0.73003721  0.27058356  0.02456749     0.77200
O569        O  0.54187768  0.21460758  0.68408389    -0.56500
C570        C  0.52280230  0.15387466  0.92899528     0.77200
C571        C  0.65378039  0.14631841  0.73665930     0.79600
Cd572      Cd  0.61745980  0.19912516  0.00064508     1.37500
O573        O  0.72050679  0.23971344  0.98752366    -0.55400
O574        O  0.65096288  0.19183858  0.73901731    -0.54200
C575        C  0.58289605  0.26087325  0.70104525     0.79600
O576        O  0.63552839  0.11865450  0.69798224    -0.56600
O577        O  0.71492206  0.22444217  0.64826964    -0.55000
O578        O  0.51099082  0.13841015  0.97193694    -0.55000
O579        O  0.57180826  0.25181454  0.01541469    -0.54200
O580        O  0.22049048  0.53937611  0.70906521    -0.55400
C581        C  0.15939573  0.65319166  0.74190045     0.77200
O582        O  0.22226883  0.65208390  0.95356197    -0.56500
C583        C  0.27148220  0.58239475  0.71225915     0.77200
C584        C  0.14233466  0.48518470  0.92054283     0.79600
Cd585      Cd  0.17888276  0.56537735  0.00292564     1.37500
O586        O  0.12430442  0.62079609  0.70995879    -0.55400
O587        O  0.19384917  0.52567553  0.92856708    -0.54200
C588        C  0.27129060  0.66502727  0.96913842     0.79600
O589        O  0.10548815  0.48107655  0.95136563    -0.56600
O590        O  0.21028843  0.66412548  0.73479122    -0.55000
O591        O  0.22110154  0.54564354  0.06744506    -0.55000
O592        O  0.26502868  0.65218043  0.60858125    -0.54200
O593        O  0.42277770  0.52645572  0.74488958    -0.55400
C594        C  0.43009075  0.69255068  0.67087528     0.77200
O595        O  0.44252337  0.63579529  0.92537949    -0.56500
C596        C  0.36843467  0.48677200  0.74534587     0.77200
C597        C  0.28180271  0.52771640  0.02178629     0.79600
Cd598      Cd  0.42252964  0.58945441  0.68286414     1.37500
O599        O  0.44969138  0.68377297  0.70887391    -0.55400
O600        O  0.36450029  0.60684245  0.73376881    -0.54200
C601        C  0.48793533  0.63375691  0.91950378     0.79600
O602        O  0.29120238  0.50973930  0.98282421    -0.56600
O603        O  0.38285292  0.63977566  0.98455145    -0.55000
O604        O  0.34332513  0.48360865  0.70710813    -0.55000
O605        O  0.48776230  0.59534700  0.94649822    -0.54200
O606        O  0.45314216  0.86993289  0.73123317    -0.55400
C607        C  0.31293765  0.74849558  0.62664755     0.77200
O608        O  0.42390881  0.88369605  0.92806730    -0.56500
C609        C  0.49891305  0.86619124  0.73305863     0.77200
C610        C  0.42947378  0.73172007  0.01227520     0.79600
Cd611      Cd  0.41800795  0.83738322  0.65223254     1.37500
O612        O  0.31750998  0.77759129  0.66367453    -0.55400
O613        O  0.39942957  0.75519127  0.69315738    -0.54200
C614        C  0.37017885  0.86851633  0.92549036     0.79600
O615        O  0.45126667  0.76162454  0.97463702    -0.56600
O616        O  0.36139568  0.74241929  0.94333262    -0.55000
O617        O  0.51445638  0.85872629  0.69287005    -0.55000
O618        O  0.34077503  0.84276538  0.96183109    -0.54200
C619        C  0.86575352  0.34065963  0.87786552    -0.00100
C620        C  0.65940869  0.12021597  0.78344403    -0.00100
C621        C  0.87419082  0.53976101  0.79321630    -0.00100
C622        C  0.66627647  0.54987933  0.87783055    -0.00100
C623        C  0.52699463  0.65826347  0.87263366    -0.00100
C624        C  0.53342087  0.87556344  0.78142989    -0.00100
C625        C  0.14017604  0.66647949  0.79119347    -0.00100
C626        C  0.34604719  0.88320559  0.88009953    -0.00100
C627        C  0.47889001  0.12942591  0.88626532    -0.00100
C628        C  0.47702071  0.34169956  0.79400945    -0.00100
C629        C  0.12590463  0.45883090  0.86989823    -0.00100
C630        C  0.33793207  0.44877430  0.79193560    -0.00100
C631        C  0.25726375  0.42988365  0.85781504     0.26000
C632        C  0.27311777  0.43510187  0.80889317    -0.22100
C633        C  0.23231776  0.43921528  0.78008529     0.20900
C634        C  0.18393261  0.44251852  0.79869036     0.26000
C635        C  0.17181941  0.44207629  0.84771275    -0.22000
C636        C  0.20840521  0.43155157  0.87590347     0.20900
F637        F  0.19809521  0.42378321  0.92260672    -0.12000
F638        F  0.29258480  0.42920054  0.89054589    -0.14300
F639        F  0.15048049  0.44944787  0.76777051    -0.14300
F640        F  0.23891000  0.44116917  0.73307587    -0.12000
C641        C  0.38588931  0.33995055  0.83055097     0.26000
C642        C  0.41602224  0.33840093  0.78988962    -0.22100
C643        C  0.39530726  0.34877629  0.74771626     0.20900
C644        C  0.36280083  0.37675496  0.74769339     0.26000
C645        C  0.34660367  0.39342967  0.78984396    -0.22000
C646        C  0.34805563  0.36219253  0.82943932     0.20900
F647        F  0.32166846  0.36143291  0.86994896    -0.12000
F648        F  0.39823251  0.32661738  0.87294501    -0.14300
F649        F  0.34695025  0.38679712  0.70562593    -0.13700
F650        F  0.40576310  0.33225956  0.70593894    -0.12000
C651        C  0.52401154  0.22885453  0.83646154     0.26000
C652        C  0.47574552  0.18245491  0.86060515    -0.22100
C653        C  0.42534843  0.18689129  0.85866656     0.20900
C654        C  0.42342446  0.23297506  0.83423134     0.26000
C655        C  0.47266322  0.28080396  0.81153183    -0.22000
C656        C  0.52195452  0.27423675  0.81174789     0.20900
F657        F  0.57228243  0.31673299  0.79296491    -0.12000
F658        F  0.57531725  0.23156120  0.83681785    -0.14300
F659        F  0.37158541  0.22903463  0.83290098    -0.14300
F660        F  0.37676701  0.14702329  0.88168094    -0.12000
C661        C  0.35026876  0.97985222  0.85220159     0.26000
C662        C  0.35348435  0.94563337  0.88831597    -0.22100
C663        C  0.37042567  0.97498947  0.93212519     0.20900
C664        C  0.40189429  0.03636923  0.93491991     0.26000
C665        C  0.41769872  0.07122174  0.89408567    -0.22000
C666        C  0.38217606  0.04153631  0.85492242     0.20900
F667        F  0.38166913  0.07171341  0.81729755    -0.12000
F668        F  0.32325815  0.95531525  0.81171797    -0.14300
F669        F  0.41190530  0.06022799  0.97801138    -0.14300
F670        F  0.35523274  0.94502364  0.97300506    -0.12000
C671        C  0.09313585  0.53169695  0.86275654     0.26000
C672        C  0.13352381  0.51565405  0.84840993    -0.22100
C673        C  0.18753537  0.56232991  0.83215843     0.20900
C674        C  0.19454882  0.61676598  0.82247635     0.26000
C675        C  0.14656474  0.62437872  0.82449051    -0.22000
C676        C  0.10117886  0.58561749  0.85369295     0.20900
F677        F  0.06229752  0.59815917  0.87171584    -0.12000
F678        F  0.04881247  0.49754769  0.89143551    -0.14300
F679        F  0.24822972  0.66204094  0.81220126    -0.14300
F680        F  0.23513326  0.55798227  0.82998138    -0.12000
C681        C  0.18757388  0.74146041  0.86262901     0.26000
C682        C  0.18338914  0.73045877  0.81312823    -0.22100
C683        C  0.22751323  0.77711030  0.78676295     0.20900
C684        C  0.27514173  0.82699995  0.80794028     0.26000
C685        C  0.28358683  0.83465190  0.85790820    -0.22000
C686        C  0.23605165  0.79092164  0.88411823     0.20900
F687        F  0.23578123  0.79506166  0.93129691    -0.12000
F688        F  0.14536283  0.70268046  0.89162435    -0.14300
F689        F  0.31574411  0.86608273  0.77789387    -0.14300
F690        F  0.22575933  0.77478589  0.73939226    -0.12000
C691        C  0.43701177  0.82900791  0.82433275     0.26000
C692        C  0.49000967  0.88086084  0.81353302    -0.22100
C693        C  0.48880977  0.93296337  0.81397823     0.20900
C694        C  0.44087156  0.93434777  0.82969381     0.26000
C695        C  0.39072756  0.88367276  0.84535218    -0.22000
C696        C  0.38898879  0.83035575  0.83919074     0.20900
F697        F  0.34184215  0.77886605  0.85205945    -0.12000
F698        F  0.42876791  0.77562071  0.81539172    -0.14300
F699        F  0.44392755  0.98553319  0.82604558    -0.14300
F700        F  0.52934969  0.98091588  0.79112905    -0.12000
C701        C  0.47921590  0.55148126  0.85139559     0.26000
C702        C  0.48326803  0.60561730  0.84340095    -0.22100
C703        C  0.43109184  0.60253755  0.83037197     0.20900
C704        C  0.37971753  0.54949370  0.82630981     0.26000
C705        C  0.37889594  0.49630933  0.82727872    -0.22000
C706        C  0.42811160  0.49900589  0.84576086     0.20900
F707        F  0.42591977  0.45336143  0.86709092    -0.12000
F708        F  0.52038475  0.54802901  0.87487874    -0.14300
F709        F  0.33195598  0.55090914  0.81512299    -0.14300
F710        F  0.42687089  0.65058397  0.82768712    -0.12000
C711        C  0.54039624  0.72939512  0.79885747     0.26000
C712        C  0.53680108  0.71864703  0.84874105    -0.22100
C713        C  0.53781159  0.76367255  0.87514094     0.20900
C714        C  0.53867906  0.81286448  0.85430269     0.26000
C715        C  0.54100711  0.82332244  0.80431872    -0.22000
C716        C  0.54397963  0.78020303  0.77790326     0.20900
F717        F  0.54951279  0.78630796  0.73078573    -0.12000
F718        F  0.53548342  0.68811853  0.76882331    -0.14300
F719        F  0.53242805  0.84797948  0.88471254    -0.14300
F720        F  0.53638732  0.75973006  0.92241011    -0.12000
C721        C  0.61156176  0.44268594  0.85578146     0.26000
C722        C  0.61813034  0.49801141  0.84924135    -0.22100
C723        C  0.57252286  0.49839786  0.82625478     0.20900
C724        C  0.52023629  0.44729969  0.81843438     0.26000
C725        C  0.51220827  0.39186116  0.82949014    -0.22000
C726        C  0.55693433  0.39281793  0.85461915     0.20900
F727        F  0.54785866  0.34620297  0.87931031    -0.12000
F728        F  0.65625425  0.43821890  0.87148777    -0.14300
F729        F  0.48418888  0.45235599  0.78894117    -0.14300
F730        F  0.58052038  0.54465752  0.80162462    -0.12000
C731        C  0.63848547  0.62082312  0.92166788     0.26000
C732        C  0.65651785  0.60442110  0.88015802    -0.22100
C733        C  0.65709842  0.63587897  0.84021882     0.20900
C734        C  0.61995359  0.65899103  0.83749873     0.26000
C735        C  0.58713336  0.65928000  0.87684060    -0.22000
C736        C  0.60670365  0.64960956  0.91990752     0.20900
F737        F  0.59384380  0.66618078  0.96084216    -0.12000
F738        F  0.65122002  0.60951128  0.96462627    -0.14300
F739        F  0.61437560  0.67755611  0.79522896    -0.14300
F740        F  0.68574903  0.63617931  0.80099393    -0.12000
C741        C  0.97553703  0.55582818  0.77548186     0.26000
C742        C  0.94370227  0.58238077  0.78933455    -0.22100
C743        C  0.97904284  0.64234555  0.80153617     0.20900
C744        C  0.04181025  0.67205532  0.80085368     0.26000
C745        C  0.07191623  0.64329602  0.78730631    -0.22000
C746        C  0.03520210  0.58435960  0.77397146     0.20900
F747        F  0.05657836  0.54925989  0.76514410    -0.12000
F748        F  0.94897873  0.49786832  0.76734708    -0.14300
F749        F  0.07245507  0.72798313  0.81538730    -0.14300
F750        F  0.95354332  0.67172841  0.81632980    -0.12000
C751        C  0.77888431  0.57718320  0.87966720     0.26000
C752        C  0.72819102  0.56307203  0.85419857    -0.22100
C753        C  0.73463341  0.55544180  0.80492982     0.20900
C754        C  0.78363653  0.55526437  0.78451306     0.26000
C755        C  0.83091405  0.56222946  0.81097363    -0.22000
C756        C  0.82792465  0.57688322  0.85904759     0.20900
F757        F  0.87187570  0.58810146  0.88790250    -0.12000
F758        F  0.78179498  0.59136697  0.92547490    -0.14300
F759        F  0.78384268  0.54717084  0.73783108    -0.14300
F760        F  0.69208592  0.54617526  0.77513361    -0.12000
C761        C  0.53759409  0.07854184  0.87617033     0.26000
C762        C  0.50951835  0.10556688  0.85532148    -0.22100
C763        C  0.51342229  0.11024513  0.80665193     0.20900
C764        C  0.55183406  0.09938613  0.78303629     0.26000
C765        C  0.59903077  0.10092490  0.80740504    -0.22000
C766        C  0.58735661  0.08545232  0.85514322     0.20900
F767        F  0.62615150  0.08448027  0.88371542    -0.12000
F768        F  0.52459889  0.05679043  0.92042178    -0.14300
F769        F  0.54213951  0.08817418  0.73673407    -0.14300
F770        F  0.47963882  0.12335212  0.78132036    -0.12000
C771        C  0.65825479  0.02958969  0.81861765     0.26000
C772        C  0.66045907  0.06160367  0.77866366    -0.22100
C773        C  0.64981692  0.02971281  0.73664016     0.20900
C774        C  0.61755866  0.96810084  0.73696278     0.26000
C775        C  0.59363452  0.93609603  0.77923760    -0.22000
C776        C  0.62249190  0.96812221  0.81993229     0.20900
F777        F  0.61535517  0.94134078  0.86142084    -0.12000
F778        F  0.69190661  0.05746825  0.85585521    -0.14300
F779        F  0.61378310  0.94079827  0.69620500    -0.14300
F780        F  0.67614831  0.05689997  0.69604697    -0.12000
C781        C  0.90792268  0.44991655  0.86996428     0.26000
C782        C  0.86502601  0.39307277  0.85491440    -0.22100
C783        C  0.81585088  0.38880077  0.83337202     0.20900
C784        C  0.81091013  0.43792334  0.82896885     0.26000
C785        C  0.86170561  0.49313654  0.83083512    -0.22000
C786        C  0.90478731  0.49829873  0.86022836     0.20900
F787        F  0.94599900  0.55044862  0.87736010    -0.12000
F788        F  0.94983417  0.45799480  0.89929813    -0.14300
F789        F  0.76269837  0.43177088  0.80904173    -0.14300
F790        F  0.77533336  0.34022036  0.81162214    -0.12000
C791        C  0.96248336  0.34331537  0.90469525     0.26000
C792        C  0.93028312  0.35155138  0.86954707    -0.22100
C793        C  0.96310896  0.37907396  0.82825239     0.20900
C794        C  0.02451590  0.40610367  0.82596816     0.26000
C795        C  0.05820331  0.40829110  0.86504835    -0.22000
C796        C  0.02438667  0.37149854  0.90287294     0.20900
F797        F  0.05132332  0.36372058  0.93935815    -0.12000
F798        F  0.93420220  0.30843633  0.94186167    -0.14300
F799        F  0.05118421  0.43537734  0.78615800    -0.14300
F800        F  0.93599051  0.38289135  0.78998122    -0.12000
C801        C  0.77243583  0.18942189  0.80528620     0.26000
C802        C  0.71342438  0.17233796  0.81237968    -0.22100
C803        C  0.70660778  0.20944454  0.84404028     0.20900
C804        C  0.75309253  0.25664670  0.86835120     0.26000
C805        C  0.81279411  0.27724701  0.85906347    -0.22000
C806        C  0.82016719  0.23989532  0.82735415     0.20900
F807        F  0.87407446  0.25204843  0.81629843    -0.12000
F808        F  0.78476903  0.15781802  0.77561382    -0.14300
F809        F  0.73772604  0.28690399  0.89647941    -0.14300
F810        F  0.65458476  0.20437577  0.84931340    -0.12000
loop_ 
_geom_bond_atom_site_label_1 
_geom_bond_atom_site_label_2 
_geom_bond_distance 
_geom_bond_site_symmetry_2 
_ccdc_geom_bond_type 
O1            C4   1.256       .  A
O1           Cd6   2.537       .  S
C2            O7   1.263       .  A
C2          O551   1.258       .  A
C2          C568   1.459       .  S
O3            C9   1.269       .  A
O3         Cd276   2.441       .  S
C4           O12   1.290       .  A
C4           C81   1.590       .  S
C5           O10   1.271       .  A
C5            O8   1.284       .  A
C5           C79   1.609       .  S
Cd6          O13   2.391       .  S
Cd6          O12   2.528       .  S
Cd6           O7   2.335       .  S
Cd6         O543   2.427   1_554  S
Cd6         O551   2.455       .  S
Cd6         O550   2.587   1_554  S
Cd6         O548   2.498   1_554  S
O8         Cd276   2.665       .  S
C9          O283   1.270       .  A
C9          C292   1.462       .  S
O10        Cd276   2.535       .  S
O11         C272   1.257       .  A
O11        Cd276   2.316       .  S
O13         C549   1.262       .  A
O14          C17   1.286       .  A
O14         Cd19   2.539       .  S
C15          O20   1.271       .  A
C15         O294   1.254       .  A
C15         C305   1.427       .  S
O16          C22   1.257       .  A
O16        Cd559   2.420       .  S
C17          O25   1.269       .  A
C17          C82   1.570       .  S
C18          O23   1.294       .  A
C18          O21   1.260       .  A
C18          C88   1.598       .  S
Cd19         O26   2.353       .  S
Cd19         O25   2.496       .  S
Cd19         O20   2.473       .  S
Cd19        O286   2.473       .  S
Cd19        O294   2.268       .  S
Cd19        O293   2.362       .  S
Cd19        O291   2.675       .  S
O21        Cd559   2.603       .  S
C22         O566   1.258       .  A
C22         C549   1.445       .  S
O23        Cd559   2.600       .  S
O24         C555   1.252       .  A
O24        Cd559   2.351   1_556  S
O26         C292   1.265       .  A
O27          C30   1.282       .  A
O27         Cd32   2.491       .  S
C28          O33   1.284       .  A
C28         O307   1.279       .  A
C28         C272   1.424       .  S
O29          C35   1.276       .  A
O29        Cd572   2.288   1_556  S
C30          O38   1.280       .  A
C30          C87   1.596       .  S
C31          O36   1.284       .  A
C31          O34   1.280       .  A
C31          C80   1.580       .  S
Cd32         O39   2.376       .  S
Cd32         O38   2.584       .  S
Cd32         O33   2.332       .  S
Cd32        O299   2.304       .  S
Cd32        O307   2.330       .  S
Cd32        O306   2.525       .  S
Cd32        O304   2.637       .  S
O34        Cd572   2.518       .  S
C35         O579   1.283   1_556  A
C35         C555   1.436       .  S
O36        Cd572   2.480       .  S
O37         C568   1.273       .  A
O37        Cd572   2.284       .  S
O39         C305   1.277       .  A
O40          C43   1.256       .  A
O40        Cd585   2.427       .  S
C41          O50   1.293       .  A
C41          O46   1.262       .  A
C41          C85   1.583       .  S
O42          C48   1.285       .  A
O42         Cd45   2.323       .  S
C43         O591   1.262       .  A
C43         C597   1.451       .  S
C44          O49   1.297       .  A
C44          O47   1.275       .  A
C44          C89   1.629       .  S
Cd45         O51   2.410       .  S
Cd45         O49   2.508       .  S
Cd45         O47   2.657       .  S
Cd45        O310   2.303       .  S
Cd45        O322   2.357       .  S
Cd45        O320   2.424       .  S
Cd45        O316   2.693       .  S
O46        Cd585   2.586       .  S
C48         O322   1.280       .  A
C48         C337   1.432       .  S
O50        Cd585   2.557       .  S
O51         C313   1.283       .  A
O52         C588   1.259       .  A
O52        Cd585   2.296   1_556  S
O53          C56   1.293       .  A
O53         Cd58   2.361   1_554  S
C54          O59   1.279       .  A
C54         O603   1.261   1_554  A
C54         C610   1.418       .  S
O55          C61   1.287       .  A
O55        Cd328   2.582       .  S
C56          O64   1.270       .  A
C56          C90   1.624       .  S
C57          O62   1.266       .  A
C57         O330   1.252       .  A
C57         C313   1.433       .  S
Cd58         O64   2.672   1_556  S
Cd58         O59   2.442   1_556  S
Cd58         O60   2.318   1_556  S
Cd58        O595   2.638       .  S
Cd58        O605   2.634       .  S
Cd58        O603   2.219       .  S
Cd58        O602   2.453       .  S
O60         C597   1.266       .  A
C61          O65   1.259       .  A
C61          C83   1.564       .  S
O62        Cd328   2.459       .  S
O63         C324   1.267       .  A
O63        Cd328   2.332       .  S
O65        Cd328   2.453       .  S
O66          C69   1.295       .  A
O66         Cd71   2.426   1_554  S
C67          O72   1.284   1_556  A
C67         O616   1.277       .  A
C67         C588   1.429       .  S
O68          C74   1.289       .  A
O68        Cd341   2.560       .  S
C69          O77   1.273       .  A
C69          C84   1.605       .  S
C70          O75   1.260       .  A
C70         O343   1.266       .  A
C70         C324   1.464       .  S
Cd71         O77   2.583   1_556  S
Cd71         O72   2.323   1_556  S
Cd71         O73   2.351   1_556  S
Cd71        O608   2.432       .  S
Cd71        O618   2.597       .  S
Cd71        O616   2.392       .  S
Cd71        O615   2.301       .  S
O73         C610   1.276       .  A
C74          O78   1.263       .  A
C74          C86   1.583       .  S
O75        Cd341   2.475       .  S
O76         C337   1.256       .  A
O76        Cd341   2.343       .  S
O78        Cd341   2.601       .  S
C79         C242   1.569       .  S
C79         C252   1.634       .  S
C79         C265   1.686       .  S
C80         C225   1.548       .  S
C80         C232   1.606       .  S
C80         C262   1.648       .  S
C81         C202   1.592       .  S
C81         C215   1.636       .  S
C81         C245   1.564       .  S
C82         C182   1.555       .  S
C82         C192   1.610       .  S
C82         C212   1.629       .  S
C83         C162   1.562       .  S
C83         C172   1.624       .  S
C83         C195   1.610       .  S
C84         C152   1.556       .  S
C84         C175   1.637       .  S
C84         C235   1.614       .  S
C85         C135   1.545       .  S
C85         C142   1.622       .  S
C85         C205   1.589       .  S
C86         C122   1.619       .  S
C86         C145   1.624       .  S
C86         C155   1.543       .  S
C87         C112   1.686       .  S
C87         C125   1.610       .  S
C87         C222   1.589       .  S
C88         C102   1.635       .  S
C88         C115   1.664       .  S
C88         C185   1.560       .  S
C89          C95   1.698       .  S
C89         C132   1.569       .  S
C89         C255   1.647       .  S
C90          C92   1.690       .  S
C90         C105   1.631       .  S
C90         C165   1.572       .  S
C91          C92   1.450       .  A
C91          C96   1.465       .  A
C91          F98   1.355       .  S
C92          C93   1.428       .  A
C93          C94   1.461       .  A
C93         F100   1.354       .  S
C94          C95   1.453       .  A
C94          F99   1.350       .  S
C95          C96   1.439       .  A
C96          F97   1.352       .  S
C101        C102   1.427       .  A
C101        C106   1.441       .  A
C101        F108   1.354       .  S
C102        C103   1.429       .  A
C103        C104   1.431       .  A
C103        F110   1.357       .  S
C104        C105   1.432       .  A
C104        F109   1.353       .  S
C105        C106   1.430       .  A
C106        F107   1.352       .  S
C111        C112   1.453       .  A
C111        C116   1.453       .  A
C111        F118   1.340       .  S
C112        C113   1.437       .  A
C113        C114   1.451       .  A
C113        F120   1.356       .  S
C114        C115   1.440       .  A
C114        F119   1.355       .  S
C115        C116   1.424       .  A
C116        F117   1.356       .  S
C121        C122   1.427       .  A
C121        C126   1.430   1_565  A
C121        F128   1.350       .  S
C122        C123   1.426       .  A
C123        C124   1.423   1_565  A
C123        F130   1.358       .  S
C124        C125   1.425       .  A
C124        F129   1.353       .  S
C125        C126   1.419       .  A
C126        F127   1.356       .  S
C131        C132   1.420       .  A
C131        C136   1.386       .  A
C131        F138   1.339       .  S
C132        C133   1.423       .  A
C133        C134   1.390       .  A
C133        F140   1.357       .  S
C134        C135   1.422       .  A
C134        F139   1.358       .  S
C135        C136   1.410       .  A
C136        F137   1.355       .  S
C141        C142   1.444       .  A
C141        C146   1.431       .  A
C141        F148   1.357       .  S
C142        C143   1.411       .  A
C143        C144   1.431       .  A
C143        F150   1.356       .  S
C144        C145   1.444       .  A
C144        F149   1.357       .  S
C145        C146   1.411       .  A
C146        F147   1.355       .  S
C151        C152   1.423       .  A
C151        C156   1.392       .  A
C151        F158   1.358       .  S
C152        C153   1.403       .  A
C153        C154   1.381       .  A
C153        F160   1.328       .  S
C154        C155   1.393       .  A
C154        F159   1.332       .  S
C155        C156   1.424       .  A
C156        F157   1.359       .  S
C161        C162   1.400       .  A
C161        C166   1.391       .  A
C161        F168   1.348       .  S
C162        C163   1.422       .  A
C163        C164   1.400       .  A
C163        F170   1.358       .  S
C164        C165   1.429       .  A
C164        F169   1.356       .  S
C165        C166   1.436       .  A
C166        F167   1.351       .  S
C171        C172   1.434       .  A
C171        C176   1.441       .  A
C171        F178   1.355       .  S
C172        C173   1.414       .  A
C173        C174   1.425       .  A
C173        F180   1.356       .  S
C174        C175   1.442       .  A
C174        F179   1.356       .  S
C175        C176   1.426       .  A
C176        F177   1.353       .  S
C181        C182   1.425       .  A
C181        C186   1.398       .  A
C181        F188   1.356       .  S
C182        C183   1.425       .  A
C183        C184   1.384       .  A
C183        F190   1.353       .  S
C184        C185   1.403       .  A
C184        F189   1.344       .  S
C185        C186   1.424       .  A
C186        F187   1.358       .  S
C191        C192   1.424       .  A
C191        C196   1.426       .  A
C191        F198   1.357       .  S
C192        C193   1.425       .  A
C193        C194   1.425       .  A
C193        F200   1.348       .  S
C194        C195   1.417       .  A
C194        F199   1.354       .  S
C195        C196   1.428       .  A
C196        F197   1.357       .  S
C201        C202   1.423   1_455  A
C201        C206   1.412       .  A
C201        F208   1.357   1_455  S
C202        C203   1.415   1_655  A
C203        C204   1.418       .  A
C203        F210   1.351   1_455  S
C204        C205   1.421       .  A
C204        F209   1.349       .  S
C205        C206   1.418       .  A
C206        F207   1.357       .  S
C211        C212   1.417       .  A
C211        C216   1.429       .  A
C211        F218   1.354       .  S
C212        C213   1.434       .  A
C213        C214   1.438       .  A
C213        F220   1.352       .  S
C214        C215   1.426       .  A
C214        F219   1.353       .  S
C215        C216   1.439       .  A
C216        F217   1.354       .  S
C221        C222   1.446       .  A
C221        C226   1.384       .  A
C221        F228   1.360       .  S
C222        C223   1.411       .  A
C223        C224   1.391       .  A
C223        F230   1.350       .  S
C224        C225   1.434       .  A
C224        F229   1.360       .  S
C225        C226   1.397       .  A
C226        F227   1.353       .  S
C231        C232   1.422       .  A
C231        C236   1.426   1_545  A
C231        F238   1.354       .  S
C232        C233   1.419       .  A
C233        C234   1.417   1_545  A
C233        F240   1.354       .  S
C234        C235   1.426       .  A
C234        F239   1.352       .  S
C235        C236   1.429       .  A
C236        F237   1.347       .  S
C241        C242   1.432       .  A
C241        C246   1.387       .  A
C241        F248   1.355       .  S
C242        C243   1.419       .  A
C243        C244   1.389       .  A
C243        F250   1.340       .  S
C244        C245   1.416       .  A
C244        F249   1.358       .  S
C245        C246   1.408       .  A
C246        F247   1.343       .  S
C251        C252   1.426       .  A
C251        C256   1.439   1_655  A
C251        F258   1.356       .  S
C252        C253   1.429       .  A
C253        C254   1.436   1_655  A
C253        F260   1.358       .  S
C254        C255   1.427       .  A
C254        F259   1.349       .  S
C255        C256   1.439       .  A
C256        F257   1.354       .  S
C261        C262   1.428       .  A
C261        C266   1.438       .  A
C261        F268   1.356       .  S
C262        C263   1.428       .  A
C263        C264   1.453       .  A
C263        F270   1.356       .  S
C264        C265   1.446       .  A
C264        F269   1.352       .  S
C265        C266   1.442       .  A
C266        F267   1.349       .  S
O271        C274   1.264       .  A
O271       Cd276   2.460       .  S
C272        O277   1.267       .  A
O273        C279   1.262       .  A
O273       Cd546   2.384       .  S
C274        O282   1.285       .  A
C274        C351   1.583       .  S
C275        O280   1.261       .  A
C275        O278   1.293       .  A
C275        C349   1.579       .  S
Cd276       O283   2.308       .  S
Cd276       O282   2.529       .  S
Cd276       O277   2.405       .  S
O278       Cd546   2.624       .  S
C279        O553   1.255       .  A
C279        C562   1.440       .  S
O280       Cd546   2.486       .  S
O281        C542   1.264       .  A
O281       Cd546   2.288       .  S
O284        C287   1.290       .  A
O284       Cd289   2.300       .  S
C285        O564   1.278       .  A
C285        O290   1.281       .  A
C285        C575   1.435       .  S
O286        C292   1.262       .  A
C287        O295   1.275       .  A
C287        C352   1.623       .  S
C288        O293   1.276       .  A
C288        O291   1.272       .  A
C288        C358   1.595       .  S
Cd289       O556   2.343       .  S
Cd289       O296   2.358       .  S
Cd289       O295   2.685       .  S
Cd289       O564   2.299       .  S
Cd289       O290   2.363       .  S
Cd289       O563   2.415       .  S
Cd289       O561   2.620       .  S
O296        C562   1.274       .  A
O297        C300   1.273       .  A
O297       Cd302   2.590       .  S
C298        O577   1.268       .  A
C298        O303   1.265       .  A
C298        C542   1.451       .  S
O299        C305   1.287       .  A
C300        O308   1.284       .  A
C300        C357   1.587       .  S
C301        O306   1.292       .  A
C301        O304   1.272       .  A
C301        C350   1.625       .  S
Cd302       O569   2.411       .  S
Cd302       O309   2.352       .  S
Cd302       O308   2.569       .  S
Cd302       O577   2.430       .  S
Cd302       O303   2.268       .  S
Cd302       O576   2.564       .  S
Cd302       O574   2.465       .  S
O309        C575   1.253       .  A
O310        C313   1.278       .  A
C311        O320   1.292       .  A
C311        O316   1.281       .  A
C311        C355   1.621       .  S
O312        C318   1.264       .  A
O312       Cd315   2.401       .  S
C314        O319   1.288       .  A
C314        O317   1.267       .  A
C314        C359   1.580       .  S
Cd315       O580   2.390       .  S
Cd315       O592   2.341       .  S
Cd315       O321   2.332       .  S
Cd315       O590   2.532       .  S
Cd315       O586   2.595       .  S
Cd315       O319   2.567       .  S
Cd315       O317   2.556       .  S
C318        O592   1.255       .  A
C318        C607   1.426       .  S
O321        C583   1.258       .  A
O323        C326   1.278       .  A
O323       Cd328   2.464       .  S
C324        O329   1.265       .  A
O325        C331   1.284       .  A
O325       Cd598   2.673       .  S
C326        O334   1.271       .  A
C326        C360   1.608       .  S
C327        O332   1.285       .  A
C327        O600   1.278       .  A
C327        C583   1.423       .  S
Cd328       O334   2.705       .  S
Cd328       O329   2.486       .  S
Cd328       O330   2.368       .  S
C331        O335   1.278       .  A
C331        C353   1.603       .  S
O332       Cd598   2.322       .  S
O333        C594   1.270       .  A
O333       Cd598   2.304       .  S
O335       Cd598   2.430       .  S
O336        C339   1.288       .  A
O336       Cd341   2.492       .  S
C337        O342   1.268       .  A
O338        C344   1.267       .  A
O338       Cd611   2.601       .  S
C339        O347   1.264       .  A
C339        C354   1.560       .  S
C340        O345   1.285       .  A
C340        O613   1.272       .  A
C340        C594   1.423       .  S
Cd341       O347   2.502       .  S
Cd341       O342   2.423       .  S
Cd341       O343   2.361       .  S
C344        O348   1.298       .  A
C344        C356   1.608       .  S
O345       Cd611   2.348       .  S
O346        C607   1.273       .  A
O346       Cd611   2.332       .  S
O348       Cd611   2.465       .  S
C349        C512   1.557       .  S
C349        C522   1.614       .  S
C349        C535   1.642       .  S
C350        C495   1.572       .  S
C350        C502   1.599       .  S
C350        C532   1.651       .  S
C351        C472   1.620       .  S
C351        C485   1.627       .  S
C351        C515   1.558       .  S
C352        C452   1.553       .  S
C352        C462   1.603       .  S
C352        C482   1.647       .  S
C353        C432   1.549       .  S
C353        C442   1.626       .  S
C353        C465   1.603       .  S
C354        C422   1.550       .  S
C354        C445   1.616       .  S
C354        C505   1.589       .  S
C355        C405   1.547       .  S
C355        C412   1.641       .  S
C355        C475   1.610       .  S
C356        C392   1.610       .  S
C356        C415   1.655       .  S
C356        C425   1.561       .  S
C357        C382   1.664       .  S
C357        C395   1.595       .  S
C357        C492   1.569       .  S
C358        C372   1.628       .  S
C358        C385   1.641       .  S
C358        C455   1.552       .  S
C359        C365   1.649       .  S
C359        C402   1.558       .  S
C359        C525   1.618       .  S
C360        C362   1.638       .  S
C360        C375   1.617       .  S
C360        C435   1.543       .  S
C361        C362   1.443       .  A
C361        C366   1.445       .  A
C361        F368   1.353       .  S
C362        C363   1.419       .  A
C363        C364   1.440       .  A
C363        F370   1.354       .  S
C364        C365   1.446       .  A
C364        F369   1.352       .  S
C365        C366   1.422       .  A
C366        F367   1.357       .  S
C371        C372   1.436       .  A
C371        C376   1.459       .  A
C371        F378   1.354       .  S
C372        C373   1.427       .  A
C373        C374   1.382       .  A
C373        F380   1.355       .  S
C374        C375   1.420       .  A
C374        F379   1.357       .  S
C375        C376   1.432       .  A
C376        F377   1.356       .  S
C381        C382   1.421       .  A
C381        C386   1.424       .  A
C381        F388   1.357       .  S
C382        C383   1.437       .  A
C383        C384   1.467       .  A
C383        F390   1.356       .  S
C384        C385   1.448       .  A
C384        F389   1.354       .  S
C385        C386   1.417       .  A
C386        F387   1.351       .  S
C391        C392   1.421       .  A
C391        C396   1.428   1_565  A
C391        F398   1.353       .  S
C392        C393   1.432       .  A
C393        C394   1.420   1_565  A
C393        F400   1.356       .  S
C394        C395   1.416       .  A
C394        F399   1.357       .  S
C395        C396   1.422       .  A
C396        F397   1.357       .  S
C401        C402   1.421       .  A
C401        C406   1.378       .  A
C401        F408   1.344       .  S
C402        C403   1.423       .  A
C403        C404   1.398       .  A
C403        F410   1.357       .  S
C404        C405   1.416       .  A
C404        F409   1.357       .  S
C405        C406   1.396       .  A
C406        F407   1.354       .  S
C411        C412   1.443       .  A
C411        C416   1.444       .  A
C411        F418   1.355       .  S
C412        C413   1.417       .  A
C413        C414   1.442       .  A
C413        F420   1.355       .  S
C414        C415   1.449       .  A
C414        F419   1.356       .  S
C415        C416   1.423       .  A
C416        F417   1.354       .  S
C421        C422   1.423       .  A
C421        C426   1.390       .  A
C421        F428   1.357       .  S
C422        C423   1.424       .  A
C423        C424   1.390       .  A
C423        F430   1.352       .  S
C424        C425   1.407       .  A
C424        F429   1.345       .  S
C425        C426   1.422       .  A
C426        F427   1.358       .  S
C431        C432   1.419       .  A
C431        C436   1.368       .  A
C431        F438   1.349       .  S
C432        C433   1.422       .  A
C433        C434   1.392       .  A
C433        F440   1.355       .  S
C434        C435   1.414       .  A
C434        F439   1.359       .  S
C435        C436   1.401       .  A
C436        F437   1.356       .  S
C441        C442   1.438       .  A
C441        C446   1.426       .  A
C441        F448   1.345       .  S
C442        C443   1.419       .  A
C443        C444   1.438       .  A
C443        F450   1.354       .  S
C444        C445   1.436       .  A
C444        F449   1.356       .  S
C445        C446   1.410       .  A
C446        F447   1.358       .  S
C451        C452   1.410       .  A
C451        C456   1.384       .  A
C451        F458   1.354       .  S
C452        C453   1.430       .  A
C453        C454   1.378       .  A
C453        F460   1.344       .  S
C454        C455   1.389       .  A
C454        F459   1.357       .  S
C455        C456   1.427       .  A
C456        F457   1.348       .  S
C461        C462   1.422       .  A
C461        C466   1.431       .  A
C461        F468   1.355       .  S
C462        C463   1.427       .  A
C463        C464   1.398       .  A
C463        F470   1.354       .  S
C464        C465   1.425       .  A
C464        F469   1.357       .  S
C465        C466   1.423       .  A
C466        F467   1.356       .  S
C471        C472   1.429       .  A
C471        C476   1.378   1_655  A
C471        F478   1.363       .  S
C472        C473   1.426       .  A
C473        C474   1.453   1_655  A
C473        F480   1.356       .  S
C474        C475   1.436       .  A
C474        F479   1.355       .  S
C475        C476   1.419       .  A
C476        F477   1.355       .  S
C481        C482   1.422       .  A
C481        C486   1.444       .  A
C481        F488   1.353       .  S
C482        C483   1.444       .  A
C483        C484   1.435       .  A
C483        F490   1.344       .  S
C484        C485   1.413       .  A
C484        F489   1.356       .  S
C485        C486   1.438       .  A
C486        F487   1.354       .  S
C491        C492   1.431       .  A
C491        C496   1.403       .  A
C491        F498   1.356       .  S
C492        C493   1.384       .  A
C493        C494   1.389       .  A
C493        F500   1.357       .  S
C494        C495   1.407       .  A
C494        F499   1.351       .  S
C495        C496   1.422       .  A
C496        F497   1.345       .  S
C501        C502   1.418       .  A
C501        C506   1.423   1_545  A
C501        F508   1.351       .  S
C502        C503   1.426       .  A
C503        C504   1.415   1_545  A
C503        F510   1.356       .  S
C504        C505   1.420       .  A
C504        F509   1.357       .  S
C505        C506   1.418       .  A
C506        F507   1.353       .  S
C511        C512   1.422       .  A
C511        C516   1.376       .  A
C511        F518   1.330       .  S
C512        C513   1.430       .  A
C513        C514   1.400       .  A
C513        F520   1.356       .  S
C514        C515   1.409       .  A
C514        F519   1.357       .  S
C515        C516   1.388       .  A
C516        F517   1.357       .  S
C521        C522   1.427       .  A
C521        C526   1.435   1_655  A
C521        F528   1.357       .  S
C522        C523   1.425       .  A
C523        C524   1.417   1_655  A
C523        F530   1.351       .  S
C524        C525   1.421       .  A
C524        F529   1.348       .  S
C525        C526   1.429       .  A
C526        F527   1.357       .  S
C531        C532   1.426       .  A
C531        C536   1.443       .  A
C531        F538   1.352       .  S
C532        C533   1.445       .  A
C533        C534   1.438       .  A
C533        F540   1.355       .  S
C534        C535   1.420       .  A
C534        F539   1.355       .  S
C535        C536   1.437       .  A
C536        F537   1.348       .  S
O541        C544   1.278       .  A
O541       Cd546   2.430       .  S
C542        O547   1.270       .  A
O543        C549   1.276   1_556  A
C544        O552   1.276       .  A
C544        C621   1.613       .  S
C545        O550   1.277       .  A
C545        O548   1.276       .  A
C545        C619   1.587       .  S
Cd546       O553   2.398       .  S
Cd546       O552   2.703       .  S
Cd546       O547   2.434       .  S
O554        C557   1.293       .  A
O554       Cd559   2.587   1_556  S
C555        O560   1.265       .  A
O556        C562   1.283       .  A
C557        O565   1.260       .  A
C557        C622   1.598       .  S
C558        O563   1.293       .  A
C558        O561   1.272       .  A
C558        C628   1.612       .  S
Cd559       O566   2.417       .  S
Cd559       O565   2.595   1_554  S
Cd559       O560   2.402   1_554  S
O567        C570   1.282       .  A
O567       Cd572   2.489   1_556  S
C568        O573   1.288   1_554  A
O569        C575   1.264       .  A
C570        O578   1.281       .  A
C570        C627   1.600       .  S
C571        O576   1.285       .  A
C571        O574   1.267       .  A
C571        C620   1.557       .  S
Cd572       O579   2.348       .  S
Cd572       O578   2.613   1_554  S
Cd572       O573   2.439   1_554  S
O580        C583   1.266       .  A
C581        O590   1.266       .  A
C581        O586   1.287       .  A
C581        C625   1.601       .  S
O582        C588   1.271       .  A
O582       Cd585   2.441   1_556  S
C584        O589   1.286       .  A
C584        O587   1.272       .  A
C584        C629   1.576       .  S
Cd585       O591   2.381       .  S
Cd585       O589   2.580   1_554  S
Cd585       O587   2.500   1_554  S
O593        C596   1.296       .  A
O593       Cd598   2.458       .  S
C594        O599   1.289       .  A
O595        C601   1.268       .  A
C596        O604   1.273       .  A
C596        C630   1.616       .  S
C597        O602   1.288   1_554  A
Cd598       O604   2.616       .  S
Cd598       O599   2.368       .  S
Cd598       O600   2.349       .  S
C601        O605   1.289       .  A
C601        C623   1.613       .  S
O606        C609   1.296       .  A
O606       Cd611   2.440       .  S
C607        O612   1.284       .  A
O608        C614   1.295       .  A
C609        O617   1.271       .  A
C609        C624   1.623       .  S
C610        O615   1.286   1_554  A
Cd611       O617   2.648       .  S
Cd611       O612   2.357       .  S
Cd611       O613   2.315       .  S
C614        O618   1.269       .  A
C614        C626   1.599       .  S
C619        C782   1.566       .  S
C619        C792   1.630       .  S
C619        C805   1.655       .  S
C620        C765   1.585       .  S
C620        C772   1.597       .  S
C620        C802   1.640       .  S
C621        C742   1.623       .  S
C621        C755   1.648       .  S
C621        C785   1.550       .  S
C622        C722   1.566       .  S
C622        C732   1.621       .  S
C622        C752   1.660       .  S
C623        C702   1.545       .  S
C623        C712   1.652       .  S
C623        C735   1.620       .  S
C624        C692   1.548       .  S
C624        C715   1.658       .  S
C624        C775   1.602       .  S
C625        C675   1.559       .  S
C625        C682   1.629       .  S
C625        C745   1.622       .  S
C626        C662   1.602       .  S
C626        C685   1.644       .  S
C626        C695   1.553       .  S
C627        C652   1.647       .  S
C627        C665   1.599       .  S
C627        C762   1.555       .  S
C628        C642   1.613       .  S
C628        C655   1.658       .  S
C628        C725   1.563       .  S
C629        C635   1.647       .  S
C629        C672   1.559       .  S
C629        C795   1.629       .  S
C630        C632   1.663       .  S
C630        C645   1.624       .  S
C630        C705   1.562       .  S
C631        C632   1.445       .  A
C631        C636   1.438       .  A
C631        F638   1.352       .  S
C632        C633   1.435       .  A
C633        C634   1.454       .  A
C633        F640   1.352       .  S
C634        C635   1.435       .  A
C634        F639   1.353       .  S
C635        C636   1.421       .  A
C636        F637   1.356       .  S
C641        C642   1.427       .  A
C641        C646   1.430       .  A
C641        F648   1.358       .  S
C642        C643   1.423       .  A
C643        C644   1.424       .  A
C643        F650   1.352       .  S
C644        C645   1.428       .  A
C644        F649   1.355       .  S
C645        C646   1.424       .  A
C646        F647   1.350       .  S
C651        C652   1.428       .  A
C651        C656   1.438       .  A
C651        F658   1.353       .  S
C652        C653   1.432       .  A
C653        C654   1.449       .  A
C653        F660   1.356       .  S
C654        C655   1.437       .  A
C654        F659   1.353       .  S
C655        C656   1.434       .  A
C656        F657   1.352       .  S
C661        C662   1.418       .  A
C661        C666   1.422   1_565  A
C661        F668   1.352       .  S
C662        C663   1.428       .  A
C663        C664   1.416   1_565  A
C663        F670   1.355       .  S
C664        C665   1.416       .  A
C664        F669   1.352       .  S
C665        C666   1.429       .  A
C666        F667   1.354       .  S
C671        C672   1.424       .  A
C671        C676   1.375       .  A
C671        F678   1.341       .  S
C672        C673   1.421       .  A
C673        C674   1.403       .  A
C673        F680   1.354       .  S
C674        C675   1.417       .  A
C674        F679   1.358       .  S
C675        C676   1.397       .  A
C676        F677   1.358       .  S
C681        C682   1.440       .  A
C681        C686   1.442       .  A
C681        F688   1.354       .  S
C682        C683   1.416       .  A
C683        C684   1.433       .  A
C683        F690   1.357       .  S
C684        C685   1.447       .  A
C684        F689   1.357       .  S
C685        C686   1.421       .  A
C686        F687   1.354       .  S
C691        C692   1.422       .  A
C691        C696   1.382       .  A
C691        F698   1.359       .  S
C692        C693   1.419       .  A
C693        C694   1.388       .  A
C693        F700   1.349       .  S
C694        C695   1.406       .  A
C694        F699   1.340       .  S
C695        C696   1.421       .  A
C696        F697   1.359       .  S
C701        C702   1.421       .  A
C701        C706   1.384       .  A
C701        F708   1.351       .  S
C702        C703   1.425       .  A
C703        C704   1.391       .  A
C703        F710   1.357       .  S
C704        C705   1.420       .  A
C704        F709   1.355       .  S
C705        C706   1.406       .  A
C706        F707   1.345       .  S
C711        C712   1.449       .  A
C711        C716   1.450       .  A
C711        F718   1.354       .  S
C712        C713   1.414       .  A
C713        C714   1.441       .  A
C713        F720   1.355       .  S
C714        C715   1.452       .  A
C714        F719   1.355       .  S
C715        C716   1.419       .  A
C716        F717   1.355       .  S
C721        C722   1.417       .  A
C721        C726   1.392       .  A
C721        F728   1.358       .  S
C722        C723   1.410       .  A
C723        C724   1.391       .  A
C723        F730   1.346       .  S
C724        C725   1.427       .  A
C724        F729   1.356       .  S
C725        C726   1.404       .  A
C726        F727   1.346       .  S
C731        C732   1.432       .  A
C731        C736   1.426       .  A
C731        F738   1.357       .  S
C732        C733   1.418       .  A
C733        C734   1.433       .  A
C733        F740   1.355       .  S
C734        C735   1.429       .  A
C734        F739   1.348       .  S
C735        C736   1.423       .  A
C736        F737   1.357       .  S
C741        C742   1.428       .  A
C741        C746   1.385   1_655  A
C741        F748   1.358       .  S
C742        C743   1.431       .  A
C743        C744   1.457   1_655  A
C743        F750   1.356       .  S
C744        C745   1.435       .  A
C744        F749   1.356       .  S
C745        C746   1.422       .  A
C746        F747   1.361       .  S
C751        C752   1.428       .  A
C751        C756   1.451       .  A
C751        F758   1.356       .  S
C752        C753   1.446       .  A
C753        C754   1.446       .  A
C753        F760   1.356       .  S
C754        C755   1.421       .  A
C754        F759   1.353       .  S
C755        C756   1.443       .  A
C756        F757   1.355       .  S
C761        C762   1.430       .  A
C761        C766   1.392       .  A
C761        F768   1.360       .  S
C762        C763   1.396       .  A
C763        C764   1.387       .  A
C763        F770   1.355       .  S
C764        C765   1.444       .  A
C764        F769   1.356       .  S
C765        C766   1.412       .  A
C766        F767   1.349       .  S
C771        C772   1.414       .  A
C771        C776   1.420   1_545  A
C771        F778   1.356       .  S
C772        C773   1.418       .  A
C773        C774   1.418   1_545  A
C773        F780   1.356       .  S
C774        C775   1.426       .  A
C774        F779   1.353       .  S
C775        C776   1.424       .  A
C776        F777   1.349       .  S
C781        C782   1.429       .  A
C781        C786   1.376       .  A
C781        F788   1.343       .  S
C782        C783   1.423       .  A
C783        C784   1.401       .  A
C783        F790   1.351       .  S
C784        C785   1.410       .  A
C784        F789   1.360       .  S
C785        C786   1.393       .  A
C786        F787   1.357       .  S
C791        C792   1.428       .  A
C791        C796   1.439   1_655  A
C791        F798   1.357       .  S
C792        C793   1.426       .  A
C793        C794   1.430   1_655  A
C793        F800   1.358       .  S
C794        C795   1.432       .  A
C794        F799   1.355       .  S
C795        C796   1.426       .  A
C796        F797   1.356       .  S
C801        C802   1.428       .  A
C801        C806   1.453       .  A
C801        F808   1.356       .  S
C802        C803   1.426       .  A
C803        C804   1.429       .  A
C803        F810   1.350       .  S
C804        C805   1.434       .  A
C804        F809   1.351       .  S
C805        C806   1.440       .  A
C806        F807   1.355       .  S
