geometry optimzed in LAMMPS
_audit_creation_date              2020-11-30 
_audit_creation_method            'lammps2cif' 
_symmetry_space_group_name_H-M    'P1' 
_symmetry_Int_Tables_number       1 
_symmetry_cell_setting            triclinic 
loop_ 
_symmetry_equiv_pos_as_xyz 
  x,y,z 
_cell_length_a                    47.40210733 
_cell_length_b                    47.414818635653106 
_cell_length_c                    110.89190844920351 
_cell_angle_alpha                 90.0510794563685 
_cell_angle_beta                  90.01108885475136 
_cell_angle_gamma                 120.16822367790684 
loop_ 
_atom_site_label 
_atom_site_type_symbol 
_atom_site_fract_x 
_atom_site_fract_y 
_atom_site_fract_z 
_atom_site_charge 
C1          C  0.10609836  0.50209870  0.53323060     0.04100
C2          C  0.13359416  0.50032716  0.53696470    -0.12100
C3          C  0.14453053  0.48260100  0.53016081     0.01600
C4          C  0.12751004  0.46631254  0.51970279    -0.10600
C5          C  0.10022634  0.46789517  0.51582675     0.04100
C6          C  0.08943744  0.48559977  0.52268646    -0.10000
H7          H  0.14657613  0.51290424  0.54507962     0.09700
H8          H  0.13582387  0.45259301  0.51444638     0.07200
H9          H  0.06844785  0.48707030  0.51969572     0.07100
C10         C  0.93573732  0.58309711  0.44257514     0.04100
C11         C  0.91323258  0.59133712  0.43781687    -0.12100
C12         C  0.90491679  0.61157435  0.44425242     0.01600
C13         C  0.91925208  0.62376785  0.45548557    -0.10600
C14         C  0.94225541  0.61665230  0.46032399     0.04100
C15         C  0.95008250  0.59586495  0.45391224    -0.10000
H16         H  0.90226608  0.58221683  0.42905916     0.09700
H17         H  0.91167130  0.63822201  0.46066062     0.07200
H18         H  0.96690552  0.58931443  0.45784564     0.07100
Fe19       Fe  0.98616131  0.67495672  0.57210288     1.65800
Fe20       Fe  0.06248078  0.71718195  0.58352012     1.73200
Fe21       Fe  0.03586403  0.75303507  0.56366082     1.54400
O22         O  0.02203175  0.72631847  0.54796166    -0.80700
O23         O  0.08058519  0.76585592  0.58823100    -0.79000
O24         O  0.97960897  0.67956123  0.55391070    -0.83200
O25         O  0.96211338  0.69929477  0.57706808    -0.78100
O26         O  0.08355003  0.76549092  0.55964880    -0.79800
O27         O  0.03173408  0.70357925  0.59826512    -0.82600
C28         C  0.96580690  0.72649744  0.57362030     0.98200
C29         C  0.99777403  0.69845263  0.54565359     1.05600
O30         O  0.02830176  0.71518347  0.57306811    -1.11600
O31         O  0.05061671  0.66918201  0.57972546    -0.74000
O32         O  0.00840364  0.64889826  0.56713121    -0.77500
O33         O  0.98928589  0.74572862  0.56680435    -0.78200
C34         C  0.03278052  0.64855658  0.57171701     0.97100
O35         O  0.98603388  0.66400423  0.59012416    -0.76100
O36         O  0.09545578  0.73189115  0.56960097    -0.81300
C37         C  0.07291828  0.78751256  0.58606535     0.99700
C38         C  0.10248222  0.75437443  0.56194998     1.05600
O39         O  0.05109533  0.78323495  0.57849257    -0.77000
C40         C  0.00245306  0.68040676  0.59919123     1.03900
C41         C  0.25437118  0.23543448  0.10753479     0.04100
C42         C  0.26723914  0.24620303  0.11921268    -0.12100
C43         C  0.25765801  0.26480014  0.12612382     0.01600
C44         C  0.23567655  0.27321221  0.12122732    -0.10600
C45         C  0.22226509  0.26261167  0.10973109     0.04100
C46         C  0.23209957  0.24414446  0.10283617    -0.10000
H47         H  0.28371848  0.23913370  0.12311899     0.09700
H48         H  0.22885157  0.28816218  0.12647357     0.07200
H49         H  0.22201908  0.23617117  0.09389863     0.07100
C50         C  0.43625068  0.17001595  0.19979715     0.04100
C51         C  0.46154464  0.16496033  0.20384230    -0.12100
C52         C  0.47219541  0.14750225  0.19671534     0.01600
C53         C  0.45771939  0.13574810  0.18542751    -0.10600
C54         C  0.43298967  0.14104791  0.18121373     0.04100
C55         C  0.42192554  0.15773007  0.18846045    -0.10000
H56         H  0.47297306  0.17474151  0.21248538     0.09700
H57         H  0.46550191  0.12207908  0.17986984     0.07200
H58         H  0.40304174  0.16215682  0.18508522     0.07100
Fe59       Fe  0.37197407  0.06477144  0.07090396     1.65800
Fe60       Fe  0.32606301  0.98693186  0.08177650     1.73200
Fe61       Fe  0.29668011  0.01368082  0.05887071     1.54400
O62         O  0.29834704  0.05698727  0.06322944    -0.80700
O63         O  0.30500017  0.95035467  0.06908736    -0.79000
O64         O  0.34722741  0.09027679  0.07124312    -0.83200
O65         O  0.37682656  0.06768703  0.05257218    -0.78100
O66         O  0.26048109  0.99197770  0.07174267    -0.79800
O67         O  0.37078435  0.99243682  0.07703847    -0.82600
C68         C  0.35913257  0.05390843  0.04346587     0.98200
C69         C  0.31865365  0.08358850  0.06830561     1.05600
O70         O  0.33147847  0.02171863  0.07052998    -1.11600
O71         O  0.34535919  0.01765388  0.09646030    -0.74000
O72         O  0.37325571  0.06803216  0.08933886    -0.77500
O73         O  0.32877645  0.03368222  0.04439563    -0.78200
C74         C  0.36229968  0.04818917  0.09804708     0.97100
O75         O  0.40076946  0.04366773  0.07043955    -0.76100
O76         O  0.28050459  0.97749658  0.08725335    -0.81300
C77         C  0.29167623  0.94625706  0.05882980     0.99700
C78         C  0.25757855  0.97952036  0.08213392     1.05600
O79         O  0.28930469  0.96870158  0.05354454    -0.77000
C80         C  0.39674141  0.01552561  0.07248050     1.03900
Fe81       Fe  0.31519372  0.34029864  0.23731633     1.65800
Fe82       Fe  0.36394719  0.41725446  0.22638581     1.73200
Fe83       Fe  0.39202785  0.38739072  0.24869494     1.54400
O84         O  0.36114797  0.36962136  0.26329323    -0.80700
O85         O  0.40972073  0.42647530  0.22114291    -0.79000
O86         O  0.31270323  0.33443605  0.25572441    -0.83200
O87         O  0.33812733  0.31354262  0.23499307    -0.78100
O88         O  0.40304061  0.43381143  0.25408279    -0.79800
O89         O  0.34537810  0.38704161  0.21145484    -0.82600
C90         C  0.36545828  0.31724117  0.23829271     0.98200
C91         C  0.33128274  0.34860047  0.26459886     1.05600
O92         O  0.35721516  0.38176695  0.23745634    -1.11600
O93         O  0.31931169  0.41304180  0.23093600    -0.74000
O94         O  0.28962789  0.36446661  0.23969157    -0.77500
O95         O  0.38614541  0.34191027  0.24432856    -0.78200
C96         C  0.29447041  0.39256388  0.23692947     0.97100
O97         O  0.31023563  0.33860854  0.21889726    -0.76100
O98         O  0.38449001  0.45251832  0.23953599    -0.81300
C99         C  0.43167452  0.42203233  0.22583354     0.99700
C100        C  0.39933789  0.45626199  0.24944869     1.05600
O101        O  0.42754235  0.40696293  0.23569647    -0.77000
C102        C  0.32431562  0.35717103  0.21003729     1.03900
C103        C  0.20027543  0.27636202  0.36500895     0.04100
C104        C  0.20969661  0.25566893  0.37058776    -0.12100
C105        C  0.23049166  0.24707613  0.36468938     0.01600
C106        C  0.24261295  0.25999165  0.35326413    -0.10600
C107        C  0.23421530  0.28118591  0.34763855     0.04100
C108        C  0.21280287  0.28907894  0.35349765    -0.10000
H109        H  0.20145188  0.24673084  0.37962959     0.09700
H110        H  0.25826120  0.25298855  0.34859888     0.07200
H111        H  0.20604932  0.30522326  0.34910730     0.07100
C112        C  0.15945083  0.47310646  0.27934347     0.04100
C113        C  0.14756136  0.45979518  0.29084426    -0.12100
C114        C  0.12991876  0.47058131  0.29776034     0.01600
C115        C  0.12362558  0.49419263  0.29294962    -0.10600
C116        C  0.13473982  0.50716274  0.28147101     0.04100
C117        C  0.15276870  0.49672019  0.27467477    -0.10000
H118        H  0.15247008  0.44146499  0.29446365     0.09700
H119        H  0.10895102  0.50176404  0.29798957     0.07200
H120        H  0.16106532  0.50650776  0.26571605     0.07100
Fe121      Fe  0.03159531  0.39394800  0.40554622     1.65800
Fe122      Fe  0.95546062  0.34797390  0.39308666     1.73200
Fe123      Fe  0.97998677  0.31705395  0.41591272     1.54400
O124        O  0.02186891  0.31763476  0.41035074    -0.80700
O125        O  0.91731682  0.32323986  0.40515749    -0.79000
O126        O  0.05722611  0.36914041  0.40514882    -0.83200
O127        O  0.03312584  0.39682018  0.42399130    -0.78100
O128        O  0.95577003  0.28190892  0.40306735    -0.79800
O129        O  0.95870583  0.39098173  0.39901738    -0.82600
C130        C  0.02196537  0.37650685  0.43253795     0.98200
C131        C  0.04938038  0.33937827  0.40627980     1.05600
O132        O  0.98897697  0.35309998  0.40487850    -1.11600
O133        O  0.98818795  0.37086257  0.37895322    -0.74000
O134        O  0.03719213  0.39741313  0.38730362    -0.77500
O135        O  0.00271745  0.34634654  0.43074880    -0.78200
C136        C  0.01901583  0.38803471  0.37811695     0.97100
O137        O  0.00977761  0.42242538  0.40579672    -0.76100
O138        O  0.94867705  0.30405620  0.38650700    -0.81300
C139        C  0.91334952  0.31209855  0.41583106     0.99700
C140        C  0.94708775  0.27999755  0.39216239     1.05600
O141        O  0.93644709  0.31243101  0.42179981    -0.77000
C142        C  0.98116571  0.41726342  0.40370327     1.03900
C143        C  0.54752225  0.95136579  0.03358759     0.04100
C144        C  0.55517136  0.92850866  0.03830208    -0.12100
C145        C  0.57439401  0.91941433  0.03162527     0.01600
C146        C  0.58553063  0.93263615  0.02019548    -0.10600
C147        C  0.57730246  0.95465548  0.01520220     0.04100
C148        C  0.55880269  0.96448511  0.02203357    -0.10000
H149        H  0.54677114  0.91831946  0.04720497     0.09700
H150        H  0.60051301  0.92549183  0.01513276     0.07200
H151        H  0.55234336  0.98154014  0.01823083     0.07100
C152        C  0.49062428  0.14491654  0.94374260     0.04100
C153        C  0.48086993  0.13048878  0.95517659    -0.12100
C154        C  0.46437841  0.14030746  0.96310432     0.01600
C155        C  0.45727213  0.16430953  0.95940040    -0.10600
C156        C  0.46556655  0.17813758  0.94782230     0.04100
C157        C  0.48282730  0.16858113  0.94006212    -0.10000
H158        H  0.48649775  0.11193613  0.95794154     0.09700
H159        H  0.44429926  0.17160230  0.96552337     0.07200
H160        H  0.48907022  0.17838342  0.93101801     0.07100
Fe161      Fe  0.64698392  0.01393071  0.90394010     1.65800
Fe162      Fe  0.69591678  0.08943272  0.89166230     1.73200
Fe163      Fe  0.72456417  0.06279637  0.91464078     1.54400
O164        O  0.69419555  0.04175457  0.92939297    -0.80700
O165        O  0.74018994  0.09609845  0.88571414    -0.79000
O166        O  0.64388511  0.01312195  0.92229955    -0.83200
O167        O  0.66970976  0.98608011  0.90381405    -0.78100
O168        O  0.73101353  0.10707405  0.92037412    -0.79800
O169        O  0.67413232  0.05725684  0.87756238    -0.82600
C170        C  0.69885536  0.99220302  0.90547599     0.98200
C171        C  0.66368878  0.02417249  0.93099834     1.05600
O172        O  0.68917191  0.05535088  0.90339838    -1.11600
O173        O  0.65293902  0.08749122  0.89660978    -0.74000
O174        O  0.62054818  0.03800817  0.90424747    -0.77500
O175        O  0.72142479  0.01943024  0.90948674    -0.78200
C176        C  0.62648539  0.06661270  0.90160992     0.97100
O177        O  0.64329771  0.00829315  0.88559178    -0.76100
O178        O  0.71909496  0.12637824  0.90404536    -0.81300
C179        C  0.76397342  0.09687658  0.89128206     0.99700
C180        C  0.73011218  0.12987820  0.91470344     1.05600
O181        O  0.76117285  0.08609032  0.90195236    -0.77000
C182        C  0.65493412  0.02681519  0.87654315     1.03900
C183        C  0.86308488  0.60542325  0.69805855     0.04100
C184        C  0.87599571  0.61920344  0.68668241    -0.12100
C185        C  0.89205631  0.60709971  0.67957482     0.01600
C186        C  0.89630403  0.58187720  0.68402548    -0.10600
C187        C  0.88514313  0.56900904  0.69550465     0.04100
C188        C  0.86830958  0.58050161  0.70246614    -0.10000
H189        H  0.87358920  0.63929349  0.68329023     0.09700
H190        H  0.90944003  0.57299908  0.67870233     0.07200
H191        H  0.85907812  0.56970187  0.71122343     0.07100
C192        C  0.83545122  0.81462653  0.61421483     0.04100
C193        C  0.82215802  0.80084882  0.62552763    -0.12100
C194        C  0.80270011  0.81039237  0.63190582     0.01600
C195        C  0.79639459  0.83372918  0.62679716    -0.10600
C196        C  0.80972910  0.84812921  0.61562159     0.04100
C197        C  0.82900128  0.83819628  0.60931038    -0.10000
H198        H  0.82669269  0.78244527  0.62932086     0.09700
H199        H  0.78016708  0.84005039  0.63140162     0.07200
H200        H  0.83930185  0.84907676  0.60065348     0.07100
C201        C  0.57708295  0.89380050  0.77628221     0.04100
C202        C  0.59031167  0.90591641  0.78782584    -0.12100
C203        C  0.58083039  0.92511575  0.79440230     0.01600
C204        C  0.55697022  0.93099599  0.78963189    -0.10600
C205        C  0.54337589  0.91927566  0.77827023     0.04100
C206        C  0.55414641  0.90148255  0.77147881    -0.10000
H207        H  0.60813280  0.90068902  0.79169883     0.09700
H208        H  0.54904485  0.94518110  0.79480013     0.07200
H209        H  0.54439354  0.89352444  0.76251332     0.07100
C210        C  0.76166390  0.83902085  0.86703256     0.04100
C211        C  0.78707594  0.83516727  0.87185927    -0.12100
C212        C  0.79801098  0.81645844  0.86572406     0.01600
C213        C  0.78288255  0.80117101  0.85488974    -0.10600
C214        C  0.75828919  0.80535298  0.84977750     0.04100
C215        C  0.74740407  0.82394590  0.85596105    -0.10000
H216        H  0.79899913  0.84759973  0.88013428     0.09700
H217        H  0.79050584  0.78591851  0.85029487     0.07200
H218        H  0.72824332  0.82712936  0.85206039     0.07100
Fe219      Fe  0.70082427  0.72880612  0.73904560     1.65800
Fe220      Fe  0.65316401  0.65134853  0.74981590     1.73200
Fe221      Fe  0.62645627  0.67815833  0.72627309     1.54400
O222        O  0.62591013  0.71963057  0.73165804    -0.80700
O223        O  0.63118313  0.61485607  0.73706756    -0.79000
O224        O  0.67589567  0.75429956  0.73864811    -0.83200
O225        O  0.70766823  0.73192509  0.72081302    -0.78100
O226        O  0.58841701  0.65220482  0.73820165    -0.79800
O227        O  0.69726625  0.65542736  0.74514772    -0.82600
C228        C  0.68992425  0.72103188  0.71153936     0.98200
C229        C  0.64663532  0.74674690  0.73634303     1.05600
O230        O  0.66015852  0.68611894  0.73837554    -1.11600
O231        O  0.67306347  0.68199702  0.76455016    -0.74000
O232        O  0.70043137  0.73231247  0.75742203    -0.77500
O233        O  0.65928221  0.70208533  0.71226467    -0.78200
C234        C  0.68968942  0.71257342  0.76614457     0.97100
O235        O  0.72936241  0.70713580  0.73939863    -0.76100
O236        O  0.60808418  0.64357186  0.75514677    -0.81300
C237        C  0.62182918  0.61177109  0.72617088     0.99700
C238        C  0.58460590  0.64157565  0.74894095     1.05600
O239        O  0.62298165  0.63525046  0.72024697    -0.77000
C240        C  0.72419571  0.67838403  0.74113066     1.03900
C241        C  0.29669176  0.45441798  0.77528635     0.04100
C242        C  0.32766490  0.47411423  0.76998115    -0.12100
C243        C  0.35641608  0.48334399  0.77646370     0.01600
C244        C  0.35449535  0.47162773  0.78816075    -0.10600
C245        C  0.32428944  0.45140224  0.79361422     0.04100
C246        C  0.29541136  0.44283136  0.78718187    -0.10000
H247        H  0.32982052  0.48226120  0.76074882     0.09700
H248        H  0.37676588  0.47886948  0.79317153     0.07200
H249        H  0.27219819  0.42817754  0.79164874     0.07100
C250        C  0.05060645  0.27769406  0.86181805     0.04100
C251        C  0.05227533  0.29126426  0.85036697    -0.12100
C252        C  0.02391631  0.28104565  0.84348788     0.01600
C253        C  0.99366915  0.25774715  0.84822380    -0.10600
C254        C  0.99139994  0.24427645  0.85967155     0.04100
C255        C  0.02002459  0.25384738  0.86635064    -0.10000
H256        H  0.07569729  0.30913416  0.84666400     0.09700
H257        H  0.97169052  0.25018022  0.84298379     0.07200
H258        H  0.01837969  0.24354248  0.87521812     0.07100
Fe259      Fe  0.01104028  0.34842851  0.73407104     1.65800
Fe260      Fe  0.04022045  0.42542660  0.72282900     1.73200
Fe261      Fe  0.98166802  0.39623595  0.74499799     1.54400
O262        O  0.94157055  0.35167469  0.74037232    -0.80700
O263        O  0.05373254  0.46179408  0.73555853    -0.79000
O264        O  0.96096344  0.32138933  0.73266675    -0.83200
O265        O  0.01039078  0.34531716  0.75250487    -0.78100
O266        O  0.96718865  0.41676290  0.73180831    -0.79800
O267        O  0.08043248  0.42194501  0.72826280    -0.82600
C268        C  0.00367755  0.35791257  0.76129956     0.98200
C269        C  0.93743180  0.32593488  0.73520273     1.05600
O270        O  0.01098295  0.39013842  0.73396086    -1.11600
O271        O  0.03019432  0.39441799  0.70813801    -0.74000
O272        O  0.01158334  0.34497144  0.71570972    -0.77500
O273        O  0.99270478  0.37715865  0.75985372    -0.78200
C274        C  0.01879338  0.36399076  0.70681419     0.97100
O275        O  0.06121317  0.37153171  0.73537658    -0.76100
O276        O  0.00350412  0.43368755  0.71682034    -0.81300
C277        C  0.04302957  0.46512579  0.74563266     0.99700
C278        C  0.97766921  0.43039831  0.72166503     1.05600
O279        O  0.01779039  0.44202736  0.75057139    -0.77000
C280        C  0.08462004  0.40009643  0.73322812     1.03900
Fe281      Fe  0.33732802  0.39484986  0.90512390     1.65800
Fe282      Fe  0.37158600  0.35167729  0.89530845     1.73200
Fe283      Fe  0.30644713  0.31674682  0.91407834     1.54400
O284        O  0.31995329  0.34417724  0.92970791    -0.80700
O285        O  0.34073196  0.30304100  0.89091967    -0.79000
O286        O  0.32537632  0.39099021  0.92325823    -0.83200
O287        O  0.28950225  0.37127874  0.89982948    -0.78100
O288        O  0.33998318  0.30225667  0.91846185    -0.79800
O289        O  0.35686950  0.36513078  0.87981757    -0.82600
C290        C  0.26506962  0.34492471  0.90340321     0.98200
C291        C  0.32491339  0.37268555  0.93170468     1.05600
O292        O  0.33832192  0.35427387  0.90479821    -1.11600
O293        O  0.40800622  0.39951029  0.89896847    -0.74000
O294        O  0.38511639  0.42065324  0.91055506    -0.77500
O295        O  0.26796090  0.32533845  0.91047628    -0.78200
C296        C  0.41013252  0.42051479  0.90661505     0.97100
O297        O  0.34910415  0.40453168  0.88697426    -0.76100
O298        O  0.38773473  0.33728057  0.91006613    -0.81300
C299        C  0.31103560  0.28147616  0.89265392     0.99700
C300        C  0.37037337  0.31321431  0.91691194     1.05600
O301        O  0.29205562  0.28651053  0.89921120    -0.77000
C302        C  0.35107407  0.38829735  0.87820148     1.03900
C303        C  0.39261218  0.50291129  0.03229990     0.04100
C304        C  0.39284018  0.48857392  0.02117882    -0.12100
C305        C  0.36362567  0.46833472  0.01500642     0.01600
C306        C  0.33408980  0.46278446  0.01994096    -0.10600
C307        C  0.33312489  0.47649792  0.03101714     0.04100
C308        C  0.36251166  0.49685170  0.03712862    -0.10000
H309        H  0.41569778  0.49272615  0.01740190     0.09700
H310        H  0.31161524  0.44814515  0.01497850     0.07200
H311        H  0.36190677  0.50806163  0.04556422     0.07100
C312        C  0.62759745  0.57070887  0.94586252     0.04100
C313        C  0.62914203  0.58359066  0.95746978    -0.12100
C314        C  0.65919292  0.60147244  0.96346628     0.01600
C315        C  0.68773513  0.60671082  0.95772784    -0.10600
C316        C  0.68664080  0.59413588  0.94622323     0.04100
C317        C  0.65663911  0.57634294  0.94026647    -0.10000
H318        H  0.60697930  0.57942761  0.96188428     0.09700
H319        H  0.71112600  0.62114446  0.96215942     0.07200
H320        H  0.65588903  0.56609937  0.93145535     0.07100
Fe321      Fe  0.68243474  0.68516726  0.07286934     1.65800
Fe322      Fe  0.64877729  0.73042151  0.08232230     1.73200
Fe323      Fe  0.71305904  0.76292547  0.06242608     1.54400
O324        O  0.75222782  0.75804690  0.06798286    -0.80700
O325        O  0.63665453  0.75126548  0.06853796    -0.79000
O326        O  0.73189104  0.70891794  0.07627323    -0.83200
O327        O  0.68862398  0.68460758  0.05462845    -0.78100
O328        O  0.72457087  0.79665492  0.07603399    -0.79800
O329        O  0.61064946  0.68541069  0.07663415    -0.82600
C330        C  0.69478563  0.70383048  0.04584136     0.98200
C331        C  0.75579105  0.73687546  0.07373841     1.05600
O332        O  0.68145898  0.72632749  0.07256814    -1.11600
O333        O  0.65726422  0.71102691  0.09766562    -0.74000
O334        O  0.67597197  0.67927486  0.09113474    -0.77500
O335        O  0.70410931  0.73378817  0.04732418    -0.78200
C336        C  0.66731992  0.69119775  0.09958216     0.97100
O337        O  0.63313459  0.65740873  0.06946406    -0.76100
O338        O  0.68237334  0.77644580  0.08870588    -0.81300
C339        C  0.65110605  0.76853742  0.05938458     0.99700
C340        C  0.70983724  0.79950757  0.08511138     1.05600
O341        O  0.67880864  0.77370662  0.05592161    -0.77000
C342        C  0.60846112  0.66057675  0.07132119     1.03900
C343        C  0.71803937  0.17505005  0.69777162     0.04100
C344        C  0.71819413  0.15945216  0.68698533    -0.12100
C345        C  0.68926062  0.14095309  0.68042087     0.01600
C346        C  0.65995836  0.13722428  0.68492208    -0.10600
C347        C  0.65931965  0.15269431  0.69561567     0.04100
C348        C  0.68849002  0.17149907  0.70202853    -0.10000
H349        H  0.74096860  0.16264095  0.68349272     0.09700
H350        H  0.63743707  0.12180368  0.68010351     0.07200
H351        H  0.68820583  0.18333959  0.71035055     0.07100
C352        C  0.96265379  0.22936062  0.60720469     0.04100
C353        C  0.99272861  0.23582339  0.60224713    -0.12100
C354        C  0.02205962  0.25554458  0.60847937     0.01600
C355        C  0.02116712  0.26938126  0.61953226    -0.10600
C356        C  0.99159099  0.26303101  0.62464704     0.04100
C357        C  0.96244113  0.24356600  0.61835372    -0.10000
H358        H  0.99323440  0.22464970  0.59378450     0.09700
H359        H  0.04375812  0.28523762  0.62424884     0.07200
H360        H  0.93958551  0.23902703  0.62225876     0.07100
C361        C  0.38626973  0.93365263  0.53096818     0.04100
C362        C  0.38720390  0.94634473  0.51939093    -0.12100
C363        C  0.35807334  0.93692368  0.51304164     0.01600
C364        C  0.32814900  0.91520432  0.51842094    -0.10600
C365        C  0.32696954  0.90223187  0.52984462     0.04100
C366        C  0.35599656  0.91146340  0.53610405    -0.10000
H367        H  0.41044342  0.96340927  0.51534823     0.09700
H368        H  0.30556710  0.90819533  0.51366815     0.07200
H369        H  0.35501450  0.90139783  0.54497087     0.07100
C370        C  0.62630239  0.13293862  0.44503413     0.04100
C371        C  0.65633072  0.15708673  0.44022879    -0.12100
C372        C  0.68552338  0.16662555  0.44642443     0.01600
C373        C  0.68476731  0.15245505  0.45757281    -0.10600
C374        C  0.65513837  0.12849386  0.46260726     0.04100
C375        C  0.62597417  0.11889923  0.45626408    -0.10000
H376        H  0.65717464  0.16770597  0.43149293     0.09700
H377        H  0.70750075  0.16026022  0.46232821     0.07200
H378        H  0.60301953  0.10031258  0.46001905     0.07100
Fe379      Fe  0.67016850  0.05330752  0.57155116     1.65800
Fe380      Fe  0.64612593  0.97744108  0.58287326     1.73200
Fe381      Fe  0.70049201  0.00767734  0.55941225     1.54400
O382        O  0.68797539  0.02732544  0.54513747    -0.80700
O383        O  0.68523876  0.97183769  0.58792711    -0.79000
O384        O  0.66873619  0.05700982  0.55317775    -0.83200
O385        O  0.72026931  0.08179712  0.57215049    -0.78100
O386        O  0.66367904  0.96235134  0.55385206    -0.79800
O387        O  0.65705914  0.00823204  0.59759402    -0.82600
C388        C  0.74409750  0.07780651  0.56947546     0.98200
C389        C  0.67598535  0.04579540  0.54410579     1.05600
O390        O  0.67225424  0.01275120  0.57127404    -1.11600
O391        O  0.60392399  0.97850841  0.57856444    -0.74000
O392        O  0.61988036  0.02791022  0.57101260    -0.77500
O393        O  0.74033680  0.05227781  0.56419785    -0.78200
C394        C  0.59774860  0.99904401  0.57360695     0.97100
O395        O  0.67155477  0.05670417  0.58994273    -0.76100
O396        O  0.63203742  0.94155144  0.57002437    -0.81300
C397        C  0.70983742  0.97470840  0.58222304     0.99700
C398        C  0.63991288  0.93893147  0.55933376     1.05600
O399        O  0.71699538  0.98662845  0.57168995    -0.77000
C400        C  0.66695313  0.03835277  0.59885941     1.03900
Fe401      Fe  0.33948164  0.01248758  0.40445848     1.65800
Fe402      Fe  0.36690288  0.08968952  0.39387018     1.73200
Fe403      Fe  0.31355625  0.06135553  0.41733650     1.54400
O404        O  0.27205621  0.01914133  0.41172725    -0.80700
O405        O  0.38065560  0.12562970  0.40660652    -0.79000
O406        O  0.28893091  0.98611537  0.40434073    -0.83200
O407        O  0.34158831  0.00822774  0.42272094    -0.78100
O408        O  0.30093540  0.08694918  0.40561397    -0.79800
O409        O  0.40748689  0.08713934  0.39886413    -0.82600
C410        C  0.33392264  0.01850701  0.43194560     0.98200
C411        C  0.26651602  0.99257495  0.40677240     1.05600
O412        O  0.33992065  0.05441890  0.40522135    -1.11600
O413        O  0.35688956  0.05969949  0.37910611    -0.74000
O414        O  0.33722521  0.00947125  0.38602404    -0.77500
O415        O  0.32250479  0.03753912  0.43118368    -0.78200
C416        C  0.34476863  0.02941309  0.37742320     0.97100
O417        O  0.39004146  0.03573044  0.40468609    -0.76100
O418        O  0.32872411  0.09600293  0.38852145    -0.81300
C419        C  0.37505408  0.12847605  0.41757031     0.99700
C420        C  0.30726454  0.09756458  0.39487711     1.05600
O421        O  0.35273920  0.10489317  0.42354392    -0.77000
C422        C  0.41246909  0.06523073  0.40323350     1.03900
C423        C  0.05665247  0.83956389  0.36449035     0.04100
C424        C  0.02640979  0.83447106  0.36865645    -0.12100
C425        C  0.99779306  0.81558245  0.36194914     0.01600
C426        C  0.99967529  0.80134138  0.35111910    -0.10600
C427        C  0.02937698  0.80535001  0.34695466     0.04100
C428        C  0.05796941  0.82485920  0.35361461    -0.10000
H429        H  0.02524068  0.84527711  0.37711577     0.09700
H430        H  0.97782589  0.78728218  0.34576320     0.07200
H431        H  0.08104673  0.82804237  0.35049047     0.07100
C432        C  0.29652194  0.90198079  0.27699441     0.04100
C433        C  0.32780404  0.91065307  0.27258392    -0.12100
C434        C  0.35604578  0.93113931  0.27938532     0.01600
C435        C  0.35227307  0.94268397  0.29058674    -0.10600
C436        C  0.32167348  0.93602301  0.29471464     0.04100
C437        C  0.29383310  0.91518908  0.28801096    -0.10000
H438        H  0.32998672  0.90143035  0.26392045     0.09700
H439        H  0.37338045  0.95706756  0.29624645     0.07200
H440        H  0.27004382  0.90966226  0.29127657     0.07100
C441        C  0.97327740  0.80462561  0.11284225     0.04100
C442        C  0.00292569  0.83037833  0.10843519    -0.12100
C443        C  0.03261447  0.83883361  0.11415963     0.01600
C444        C  0.03230689  0.82125895  0.12437773    -0.10600
C445        C  0.00299864  0.79596967  0.12907040     0.04100
C446        C  0.97358100  0.78753821  0.12317395    -0.10000
H447        H  0.00275677  0.84422253  0.10069974     0.09700
H448        H  0.05513678  0.82715486  0.12869871     0.07200
H449        H  0.95086343  0.76793841  0.12671459     0.07100
C450        C  0.71641617  0.60639271  0.19861288     0.04100
C451        C  0.68635185  0.58019533  0.20239082    -0.12100
C452        C  0.65760426  0.57213360  0.19608182     0.01600
C453        C  0.65911858  0.59045493  0.18594695    -0.10600
C454        C  0.68892184  0.61654196  0.18196648     0.04100
C455        C  0.71751806  0.62452763  0.18840513    -0.10000
H456        H  0.68532290  0.56615141  0.21025411     0.09700
H457        H  0.63689738  0.58419863  0.18108256     0.07200
H458        H  0.74068032  0.64468805  0.18543984     0.07100
Fe459      Fe  0.00586629  0.72116957  0.23780517     1.65800
Fe460      Fe  0.97664312  0.64398034  0.24800965     1.73200
Fe461      Fe  0.03972385  0.67710244  0.22800839     1.54400
O462        O  0.02493625  0.69047337  0.21257876    -0.80700
O463        O  0.01125182  0.63144941  0.25287276    -0.79000
O464        O  0.01416306  0.72808775  0.21945285    -0.83200
O465        O  0.05467627  0.74869474  0.24194373    -0.78100
O466        O  0.00784182  0.62873850  0.22358715    -0.79800
O467        O  0.98972157  0.67313535  0.26321535    -0.82600
C468        C  0.07944896  0.74764422  0.23823330     0.98200
C469        C  0.01750776  0.71238427  0.21081778     1.05600
O470        O  0.00741689  0.68066534  0.23794551    -1.11600
O471        O  0.93722821  0.65038686  0.24410147    -0.74000
O472        O  0.95708878  0.69639353  0.23360045    -0.77500
O473        O  0.07692535  0.72474577  0.23149407    -0.78200
C474        C  0.93333518  0.66945433  0.23713421     0.97100
O475        O  0.99729278  0.72026622  0.25615203    -0.76100
O476        O  0.96152918  0.61154920  0.23381351    -0.81300
C477        C  0.04103856  0.64130718  0.25046774     0.99700
C478        C  0.97860523  0.60719098  0.22605009     1.05600
O479        O  0.05662051  0.66255786  0.24242147    -0.77000
C480        C  0.99548916  0.70205412  0.26486161     1.03900
C481        C  0.14743413  0.74991331  0.77812321     0.04100
C482        C  0.13258481  0.75036921  0.78909997    -0.12100
C483        C  0.11110402  0.72117539  0.79510139     0.01600
C484        C  0.10496559  0.69141166  0.79009622    -0.10600
C485        C  0.11900615  0.69021291  0.77910432     0.04100
C486        C  0.14031404  0.71959641  0.77319844    -0.10000
H487        H  0.13683142  0.77334108  0.79278438     0.09700
H488        H  0.08937331  0.66891231  0.79487745     0.07200
H489        H  0.15106854  0.71884498  0.76467869     0.07100
C490        C  0.20806034  0.99218247  0.86696858     0.04100
C491        C  0.21929563  0.99034588  0.85542169    -0.12100
C492        C  0.23782625  0.01860683  0.84865208     0.01600
C493        C  0.24580983  0.04889986  0.85348966    -0.10600
C494        C  0.23617371  0.05161325  0.86518234     0.04100
C495        C  0.21700352  0.02299993  0.87187962    -0.10000
H496        H  0.21320774  0.96690786  0.85159796     0.09700
H497        H  0.25982352  0.07055252  0.84805251     0.07200
H498        H  0.20891188  0.02463888  0.88083670     0.07100
Fe499      Fe  0.31808113  0.03952829  0.73934483     1.65800
Fe500      Fe  0.39521740  0.06702150  0.75014581     1.73200
Fe501      Fe  0.36525503  0.01080636  0.72725454     1.54400
O502        O  0.32122168  0.97027198  0.73220697    -0.80700
O503        O  0.43095508  0.08061371  0.73731810    -0.79000
O504        O  0.29057640  0.98916536  0.73996265    -0.83200
O505        O  0.31474374  0.04111326  0.72102259    -0.78100
O506        O  0.38735489  0.99615301  0.73975723    -0.79800
O507        O  0.39252332  0.10773409  0.74524959    -0.82600
C508        C  0.32640520  0.03446021  0.71193332     0.98200
C509        C  0.29533345  0.96574170  0.73739924     1.05600
O510        O  0.35958400  0.03912496  0.73891247    -1.11600
O511        O  0.36506257  0.05704832  0.76491751    -0.74000
O512        O  0.31518965  0.03798599  0.75767916    -0.77500
O513        O  0.34483331  0.02236619  0.71291928    -0.78200
C514        C  0.33468493  0.04509126  0.76641723     0.97100
O515        O  0.34159830  0.08999435  0.73889291    -0.76100
O516        O  0.40226536  0.02932108  0.75565838    -0.81300
C517        C  0.43381606  0.07184172  0.72680949     0.99700
C518        C  0.40001712  0.00472642  0.75015762     1.05600
O519        O  0.41041030  0.04770860  0.72145451    -0.77000
C520        C  0.37066180  0.11277297  0.74084544     1.03900
C521        C  0.76668824  0.99363434  0.36664416     0.04100
C522        C  0.79347015  0.02323060  0.37064900    -0.12100
C523        C  0.80398294  0.05215031  0.36411481     0.01600
C524        C  0.78806237  0.05132021  0.35337926    -0.10600
C525        C  0.76140600  0.02227701  0.34918642     0.04100
C526        C  0.75073932  0.99351244  0.35587769    -0.10000
H527        H  0.80682062  0.02375934  0.37864894     0.09700
H528        H  0.79665384  0.07353883  0.34821070     0.07200
H529        H  0.72985717  0.97111549  0.35272016     0.07100
C530        C  0.57874750  0.74376576  0.27804395     0.04100
C531        C  0.59322276  0.74382126  0.28916101    -0.12100
C532        C  0.58236237  0.71488616  0.29572768     0.01600
C533        C  0.55736609  0.68555623  0.29097403    -0.10600
C534        C  0.54227188  0.68465595  0.27999121     0.04100
C535        C  0.55294862  0.71398469  0.27359458    -0.10000
H536        H  0.61271630  0.76648208  0.29280394     0.09700
H537        H  0.54993068  0.66308352  0.29584049     0.07200
H538        H  0.54064213  0.71374557  0.26534104     0.07100
C539        C  0.10044342  0.66198500  0.03135825     0.04100
C540        C  0.08499071  0.66297261  0.02060992    -0.12100
C541        C  0.09540339  0.69263005  0.01453799     0.01600
C542        C  0.12141970  0.72134629  0.01924877    -0.10600
C543        C  0.13728427  0.72085917  0.02983816     0.04100
C544        C  0.12644769  0.69126088  0.03595275    -0.10000
H545        H  0.06458240  0.64082893  0.01704201     0.09700
H546        H  0.12962466  0.74422980  0.01455996     0.07200
H547        H  0.13898142  0.69092901  0.04407699     0.07100
C548        C  0.90787342  0.41440607  0.94365076     0.04100
C549        C  0.88145177  0.38536133  0.93922911    -0.12100
C550        C  0.87098689  0.35578537  0.94528872     0.01600
C551        C  0.88680898  0.35565490  0.95595458    -0.10600
C552        C  0.91274842  0.38451472  0.96063973     0.04100
C553        C  0.92349470  0.41387753  0.95436115    -0.10000
H554        H  0.86913165  0.38585299  0.93106804     0.09700
H555        H  0.87918709  0.33281406  0.96058779     0.07200
H556        H  0.94324951  0.43642588  0.95798143     0.07100
C557        C  0.80381679  0.08632972  0.10901652     0.04100
C558        C  0.79407323  0.05510859  0.10421011    -0.12100
C559        C  0.77193537  0.02669470  0.11040834     0.01600
C560        C  0.75843492  0.02921451  0.12123551    -0.10600
C561        C  0.76720315  0.05964367  0.12623226     0.04100
C562        C  0.79013496  0.08817591  0.12015410    -0.10000
H563        H  0.80329041  0.05255500  0.09560274     0.09700
H564        H  0.74204020  0.00712026  0.12611051     0.07200
H565        H  0.79744713  0.11165989  0.12418280     0.07100
C566        C  0.87171574  0.32085601  0.19658088     0.04100
C567        C  0.88271674  0.31907730  0.18495560    -0.12100
C568        C  0.89844446  0.34692444  0.17770351     0.01600
C569        C  0.90317948  0.37660475  0.18208000    -0.10600
C570        C  0.89424391  0.37959602  0.19385188     0.04100
C571        C  0.87794850  0.35138328  0.20103598    -0.10000
H572        H  0.87894987  0.29603195  0.18151964     0.09700
H573        H  0.91501404  0.39790461  0.17632295     0.07200
H574        H  0.87046041  0.35317473  0.21008360     0.07100
Fe575      Fe  0.98742901  0.37110424  0.06870242     1.65800
Fe576      Fe  0.06418287  0.40209555  0.08046770     1.73200
Fe577      Fe  0.03745620  0.34425810  0.05800009     1.54400
O578        O  0.99362052  0.30300838  0.06298127    -0.80700
O579        O  0.10067702  0.41731796  0.06780117    -0.79000
O580        O  0.96114225  0.32086009  0.06987315    -0.83200
O581        O  0.98464741  0.37055397  0.05036287    -0.78100
O582        O  0.05961120  0.33128667  0.07106519    -0.79800
O583        O  0.05903781  0.44172577  0.07552199    -0.82600
C584        C  0.99741891  0.36427267  0.04155056     0.98200
C585        C  0.96702097  0.29799092  0.06774889     1.05600
O586        O  0.02981991  0.37250477  0.06904940    -1.11600
O587        O  0.03264538  0.39001800  0.09498893    -0.74000
O588        O  0.98360275  0.37143303  0.08702103    -0.77500
O589        O  0.01717607  0.35386117  0.04298971    -0.78200
C590        C  0.00210981  0.37814760  0.09605566     0.97100
O591        O  0.00952352  0.42112372  0.06743742    -0.76100
O592        O  0.07436535  0.36652817  0.08630071    -0.81300
C593        C  0.10512422  0.40747386  0.05772418     0.99700
C594        C  0.07281651  0.34163798  0.08128574     1.05600
O595        O  0.08283535  0.38200948  0.05250609    -0.77000
C596        C  0.03722818  0.44522533  0.07015940     1.03900
Fe597      Fe  0.70083603  0.03419442  0.23793751     1.65800
Fe598      Fe  0.62225725  0.00558042  0.22877134     1.73200
Fe599      Fe  0.65807662  0.06924743  0.24854702     1.54400
O600        O  0.67271543  0.05449536  0.26366606    -0.80700
O601        O  0.61198890  0.04153235  0.22346822    -0.79000
O602        O  0.70781211  0.04050441  0.25641569    -0.83200
O603        O  0.72949158  0.08333829  0.23462115    -0.78100
O604        O  0.60974011  0.03900443  0.25344482    -0.79800
O605        O  0.64984344  0.01561611  0.21330160    -0.82600
C606        C  0.72873682  0.10818830  0.23838208     0.98200
C607        C  0.69381991  0.04575934  0.26519964     1.05600
O608        O  0.66030554  0.03627132  0.23842395    -1.11600
O609        O  0.62700784  0.96547877  0.23324081    -0.74000
O610        O  0.67638789  0.98475524  0.24120351    -0.77500
O611        O  0.70540906  0.10576129  0.24476941    -0.78200
C612        C  0.64818510  0.96121542  0.23870073     0.97100
O613        O  0.69945178  0.02802890  0.21938629    -0.76100
O614        O  0.59003404  0.99280017  0.24297875    -0.81300
C615        C  0.62209497  0.07126521  0.22609120     0.99700
C616        C  0.58684955  0.01057150  0.25076752     1.05600
O617        O  0.64281018  0.08626268  0.23439269    -0.77000
C618        C  0.67913975  0.02348943  0.21107595     1.03900
Fe619      Fe  0.02889073  0.70441952  0.90507413     1.65800
Fe620      Fe  0.95247019  0.67504462  0.89426665     1.73200
Fe621      Fe  0.98338831  0.73596320  0.91502808     1.54400
O622        O  0.99560068  0.71985935  0.93033434    -0.80700
O623        O  0.93891775  0.70944098  0.88996335    -0.79000
O624        O  0.03677375  0.71471681  0.92343494    -0.83200
O625        O  0.05484983  0.75269262  0.90067795    -0.78100
O626        O  0.93450166  0.70368966  0.91862980    -0.79800
O627        O  0.98247626  0.69012144  0.87929152    -0.82600
C628        C  0.05378433  0.77679159  0.90509621     0.98200
C629        C  0.02009914  0.71637609  0.93210752     1.05600
O630        O  0.98805687  0.70504107  0.90480405    -1.11600
O631        O  0.96052222  0.63624797  0.89773210    -0.74000
O632        O  0.00463330  0.65604097  0.90943695    -0.77500
O633        O  0.03134475  0.77323975  0.91231195    -0.78200
C634        C  0.97891204  0.63224220  0.90508531     0.97100
O635        O  0.02792071  0.69451248  0.88676171    -0.76100
O636        O  0.91927616  0.65809056  0.90818301    -0.81300
C637        C  0.94862827  0.73899825  0.89278294     0.99700
C638        C  0.91348863  0.67450654  0.91580775     1.05600
O639        O  0.97037454  0.75418206  0.90071575    -0.77000
C640        C  0.01084478  0.69417007  0.87786731     1.03900
C641        C  0.48899980  0.41805017  0.44294690     0.04100
C642        C  0.48297436  0.38789514  0.43823415    -0.12100
C643        C  0.46374018  0.35886218  0.44469142     0.01600
C644        C  0.45002323  0.36034390  0.45568584    -0.10600
C645        C  0.45632680  0.39011364  0.46060614     0.04100
C646        C  0.47567089  0.41898625  0.45417645    -0.10000
H647        H  0.49430112  0.38728900  0.42983052     0.09700
H648        H  0.43449246  0.33803688  0.46059578     0.07200
H649        H  0.48098188  0.44217964  0.45801373     0.07100
C650        C  0.54120185  0.65424100  0.53273327     0.04100
C651        C  0.55648357  0.65411032  0.52180621    -0.12100
C652        C  0.57461834  0.68298100  0.51518072     0.01600
C653        C  0.57849997  0.71222598  0.51972220    -0.10600
C654        C  0.56385269  0.71290811  0.53055569     0.04100
C655        C  0.54464813  0.68390152  0.53692245    -0.10000
H656        H  0.55396715  0.63157866  0.51835514     0.09700
H657        H  0.59309825  0.73473383  0.51478235     0.07200
H658        H  0.53271019  0.68463537  0.54514215     0.07100
Fe659      Fe  0.65773964  0.70575010  0.40558939     1.65800
Fe660      Fe  0.70894108  0.68224469  0.39353062     1.73200
Fe661      Fe  0.73552331  0.73829405  0.41644420     1.54400
O662        O  0.72980778  0.77734246  0.41148871    -0.80700
O663        O  0.73511481  0.67167161  0.40572061    -0.79000
O664        O  0.67834966  0.75574487  0.40523578    -0.83200
O665        O  0.65476543  0.70346426  0.42398247    -0.78100
O666        O  0.77157446  0.75354261  0.40351101    -0.79800
O667        O  0.66769122  0.63995424  0.39915094    -0.82600
C668        C  0.67428764  0.71211449  0.43278123     0.98200
C669        C  0.70659063  0.78014544  0.40702397     1.05600
O670        O  0.70077367  0.70877184  0.40518492    -1.11600
O671        O  0.68467758  0.68923804  0.37928641    -0.74000
O672        O  0.65394489  0.70730805  0.38726330    -0.77500
O673        O  0.70494747  0.72661552  0.43129602    -0.78200
C674        C  0.66495428  0.69978223  0.37821388     0.97100
O675        O  0.63315087  0.65544479  0.40587651    -0.76100
O676        O  0.75146205  0.72188535  0.38727100    -0.81300
C677        C  0.74662621  0.68002516  0.41628184     0.99700
C678        C  0.77447980  0.74601849  0.39277294     1.05600
O679        O  0.74540205  0.70253608  0.42207128    -0.77000
C680        C  0.64058732  0.63362603  0.40379613     1.03900
C681        C  0.43593535  0.32653726  0.69940939     0.04100
C682        C  0.45919501  0.35779891  0.70361511    -0.12100
C683        C  0.47125150  0.38513501  0.69604425     0.01600
C684        C  0.45849161  0.38156438  0.68440117    -0.10600
C685        C  0.43424028  0.35100173  0.68015328     0.04100
C686        C  0.42342712  0.32351417  0.68762673    -0.10000
H687        H  0.46829677  0.36102629  0.71276002     0.09700
H688        H  0.46687874  0.40292756  0.67873826     0.07200
H689        H  0.40589956  0.29971167  0.68411324     0.07100
C690        C  0.24739108  0.07919047  0.61064057     0.04100
C691        C  0.25972686  0.08412320  0.62245525    -0.12100
C692        C  0.25031827  0.05757960  0.63020390     0.01600
C693        C  0.22850247  0.02604181  0.62611423    -0.10600
C694        C  0.21720959  0.02021340  0.61416153     0.04100
C695        C  0.22665804  0.04715564  0.60643432    -0.10000
H696        H  0.27628515  0.10863165  0.62565960     0.09700
H697        H  0.22065500  0.00584823  0.63232628     0.07200
H698        H  0.21784817  0.04335407  0.59722758     0.07100
Fe699      Fe  0.36849888  0.36425335  0.57018720     1.65800
Fe700      Fe  0.32183649  0.39469839  0.58120565     1.73200
Fe701      Fe  0.29315745  0.33897635  0.55803901     1.54400
O702        O  0.32486202  0.34886340  0.54378892    -0.80700
O703        O  0.27432785  0.35993539  0.58568878    -0.79000
O704        O  0.37322689  0.36451151  0.55183025    -0.83200
O705        O  0.34340615  0.31416079  0.57108629    -0.78100
O706        O  0.28805008  0.37809787  0.55229897    -0.79800
O707        O  0.33738449  0.37970073  0.59610780    -0.82600
C708        C  0.31488964  0.29145882  0.56840381     0.98200
C709        C  0.35502277  0.35885184  0.54275695     1.05600
O710        O  0.32769821  0.36594810  0.56980982    -1.11600
O711        O  0.36814069  0.43403899  0.57772177    -0.74000
O712        O  0.39708275  0.41415306  0.56926016    -0.77500
O713        O  0.29419708  0.29696084  0.56311467    -0.78200
C714        C  0.39366223  0.43799005  0.57240885     0.97100
O715        O  0.37054588  0.36384487  0.58863810    -0.76100
O716        O  0.30489441  0.41251423  0.56788228    -0.81300
C717        C  0.25143138  0.33578056  0.58015103     0.99700
C718        C  0.29247231  0.40410179  0.55743530     1.05600
O719        O  0.25584885  0.32570548  0.57014767    -0.77000
C720        C  0.35677073  0.36883253  0.59748565     1.03900
C721        C  0.25470409  0.15811113  0.59954106    -0.27200
C722        C  0.27393414  0.16455826  0.58916859     0.06400
C723        C  0.28381777  0.14229968  0.58567398     0.26000
C724        C  0.27428242  0.11390050  0.59244568    -0.11700
C725        C  0.25556135  0.10784762  0.60295415    -0.25700
C726        C  0.24586085  0.13021963  0.60645144     0.36800
C727        C  0.28481979  0.19543350  0.58249792     0.06400
F728        F  0.30270698  0.14810815  0.57574989    -0.19500
H729        H  0.28220504  0.09706239  0.58968259     0.16200
F730        F  0.22786269  0.12506433  0.61659040    -0.23200
H731        H  0.24718221  0.17516637  0.60244020     0.18000
C732        C  0.26221346  0.20175878  0.57670501     0.26000
C733        C  0.27233988  0.23242662  0.57157154    -0.11700
C734        C  0.30516948  0.25756849  0.57226278    -0.25700
C735        C  0.32791542  0.25061491  0.57779536     0.36900
C736        C  0.31774279  0.21984660  0.58277048    -0.27400
F737        F  0.23021392  0.17840197  0.57622028    -0.19500
H738        H  0.25418687  0.23682356  0.56745379     0.16200
F739        F  0.35989433  0.27377468  0.57882202    -0.23200
H740        H  0.33545153  0.21545584  0.58728384     0.18000
C741        C  0.37439116  0.33255066  0.65438329    -0.27200
C742        C  0.39567482  0.34908573  0.64478163     0.06400
C743        C  0.42954451  0.36501345  0.64679914     0.26000
C744        C  0.44176874  0.36448834  0.65819403    -0.11700
C745        C  0.42059663  0.34837039  0.66786849    -0.25700
C746        C  0.38667216  0.33205547  0.66583419     0.36800
C747        C  0.38280600  0.35089781  0.63278782     0.06400
F748        F  0.45087861  0.38231906  0.63787338    -0.19500
H749        H  0.46795864  0.37725127  0.65952164     0.16200
F750        F  0.36541312  0.31696149  0.67501923    -0.23200
H751        H  0.34823147  0.32027844  0.65302632     0.18000
C752        C  0.39393089  0.34296686  0.62230357     0.26000
C753        C  0.38481882  0.34836687  0.61096630    -0.11700
C754        C  0.36415399  0.36156317  0.60975879    -0.25700
C755        C  0.35144184  0.36769908  0.62029781     0.36900
C756        C  0.36080174  0.36243246  0.63169253    -0.27400
F757        F  0.41383654  0.33013753  0.62301855    -0.19500
H758        H  0.39442476  0.34250594  0.60309789     0.16200
F759        F  0.33058741  0.37940401  0.61965578    -0.23200
H760        H  0.35171004  0.36841330  0.63968007     0.18000
C761        C  0.61310414  0.67968014  0.45848837    -0.27200
C762        C  0.63329770  0.69245130  0.46861612     0.06400
C763        C  0.66732043  0.71023976  0.46703041     0.26000
C764        C  0.68068549  0.71629768  0.45538926    -0.11700
C765        C  0.66033319  0.70462792  0.44516503    -0.25700
C766        C  0.62626224  0.68554830  0.44691092     0.36800
C767        C  0.61821354  0.68919020  0.48060091     0.06400
F768        F  0.68749817  0.72297978  0.47667871    -0.19500
H769        H  0.70693163  0.73069869  0.45438130     0.16200
F770        F  0.60534929  0.67267401  0.43746320    -0.23200
H771        H  0.58684163  0.66553024  0.45955611     0.18000
C772        C  0.59600716  0.70027876  0.48226051     0.26000
C773        C  0.58147083  0.69733596  0.49345527    -0.11700
C774        C  0.58861716  0.68320622  0.50323233    -0.25700
C775        C  0.61052728  0.67169548  0.50159671     0.36900
C776        C  0.62536670  0.67486074  0.49034052    -0.27400
F777        F  0.58902974  0.71480046  0.47310714    -0.19500
H778        H  0.56473543  0.70644221  0.49454570     0.16200
F779        F  0.61839938  0.65851495  0.51095351    -0.23200
H780        H  0.64234409  0.66608253  0.48920304     0.18000
C781        C  0.50300680  0.59301325  0.55846164    -0.27200
C782        C  0.48306819  0.56405819  0.55211717     0.06400
C783        C  0.48199891  0.56498146  0.53946386     0.26000
C784        C  0.50073153  0.59430176  0.53329079    -0.11700
C785        C  0.52118741  0.62335558  0.53956264    -0.25700
C786        C  0.52216736  0.62236944  0.55227954     0.36800
C787        C  0.46312902  0.53290035  0.55863648     0.06400
F788        F  0.46221417  0.53759015  0.53306943    -0.19500
H789        H  0.49886131  0.59430175  0.52356142     0.16200
F790        F  0.54237600  0.64943636  0.55875023    -0.23200
H791        H  0.50421531  0.59272323  0.56821012     0.18000
C792        C  0.46589157  0.50550160  0.55585686     0.26000
C793        C  0.44447006  0.47521388  0.56096605    -0.11700
C794        C  0.41963020  0.47144642  0.56891983    -0.25700
C795        C  0.41818116  0.49944101  0.57224226     0.36900
C796        C  0.43988310  0.52986308  0.56716417    -0.27400
F797        F  0.48889905  0.50789690  0.54796828    -0.19500
H798        H  0.44654908  0.45439316  0.55824618     0.16200
F799        F  0.39513820  0.49736233  0.58003465    -0.23200
H800        H  0.43760003  0.55081926  0.56948972     0.18000
C801        C  0.52543259  0.48316656  0.41870068    -0.27200
C802        C  0.55332657  0.50761517  0.42455472     0.06400
C803        C  0.55963477  0.50265071  0.43651967     0.26000
C804        C  0.53847570  0.47354898  0.44245791    -0.11700
C805        C  0.51088728  0.44883299  0.43654167    -0.25700
C806        C  0.50445733  0.45386375  0.42460008     0.36800
C807        C  0.57524686  0.53861431  0.41828663     0.06400
F808        F  0.58584500  0.52625224  0.44254464    -0.19500
H809        H  0.54374494  0.47015667  0.45167369     0.16200
F810        F  0.47750786  0.43078129  0.41876207    -0.23200
H811        H  0.52004189  0.48675624  0.40952699     0.18000
C812        C  0.60850195  0.54911656  0.41670542     0.26000
C813        C  0.62929187  0.57931243  0.41134820    -0.11700
C814        C  0.61740080  0.59980022  0.40767466    -0.25700
C815        C  0.58388122  0.58880906  0.40900076     0.36900
C816        C  0.56302705  0.55835255  0.41415579    -0.27400
F817        F  0.62091291  0.53030428  0.42045893    -0.19500
H818        H  0.65499338  0.58725814  0.41054744     0.16200
F819        F  0.57130868  0.60766511  0.40548417    -0.23200
H820        H  0.53744446  0.55057885  0.41528292     0.18000
C821        C  0.36661036  0.36391208  0.50866681    -0.27200
C822        C  0.40065385  0.37865324  0.50779004     0.06400
C823        C  0.41942518  0.38703138  0.51836715     0.26000
C824        C  0.40431455  0.38024215  0.52962000    -0.11700
C825        C  0.37013700  0.36503209  0.53060592    -0.25700
C826        C  0.35135876  0.35701317  0.51995529     0.36800
C827        C  0.41636589  0.38360030  0.49586730     0.06400
F828        F  0.45247393  0.40207272  0.51781205    -0.19500
H829        H  0.41957882  0.38716447  0.53758920     0.16200
F830        F  0.31832612  0.34217855  0.52038726    -0.23200
H831        H  0.35177717  0.35707183  0.50058175     0.18000
C832        C  0.43591325  0.36979240  0.49340997     0.26000
C833        C  0.44974546  0.37325258  0.48205113    -0.11700
C834        C  0.44421865  0.39028765  0.47287291    -0.25700
C835        C  0.42523439  0.40475991  0.47535603     0.36900
C836        C  0.41123980  0.40122703  0.48679036    -0.27400
F837        F  0.44051794  0.35175188  0.50184505    -0.19500
H838        H  0.46431348  0.36193183  0.48031545     0.16200
F839        F  0.41905542  0.42096516  0.46661967    -0.23200
H840        H  0.39617667  0.41197870  0.48854891     0.18000
C841        C  0.93850264  0.34771328  0.12087425    -0.27200
C842        C  0.95784512  0.35847151  0.13127354     0.06400
C843        C  0.99201315  0.37488656  0.13013506     0.26000
C844        C  0.00641456  0.38115545  0.11868388    -0.11700
C845        C  0.98698157  0.37121495  0.10821234    -0.25700
C846        C  0.95269056  0.35402135  0.10948388     0.36800
C847        C  0.94183941  0.35400120  0.14312395     0.06400
F848        F  0.01143116  0.38592773  0.14004148    -0.19500
H849        H  0.03277871  0.39422620  0.11802028     0.16200
F850        F  0.93256250  0.34318110  0.09975816    -0.23200
H851        H  0.91212943  0.33460256  0.12158183     0.18000
C852        C  0.91917584  0.36452195  0.14480017     0.26000
C853        C  0.90393413  0.36048745  0.15590562    -0.11700
C854        C  0.91114034  0.34619704  0.16560732    -0.25700
C855        C  0.93342726  0.33516116  0.16393181     0.36900
C856        C  0.94867080  0.33908035  0.15273876    -0.27400
F857        F  0.91271106  0.37989856  0.13581696    -0.19500
H858        H  0.88705533  0.36939767  0.15705042     0.16200
F859        F  0.94162924  0.32211933  0.17324398    -0.23200
H860        H  0.96594303  0.33067380  0.15158759     0.18000
C861        C  0.77663948  0.19969168  0.23267298    -0.27200
C862        C  0.79934819  0.20185188  0.22410526     0.06400
C863        C  0.80135441  0.17401797  0.22137079     0.26000
C864        C  0.77956294  0.14400328  0.22661457    -0.11700
C865        C  0.75515632  0.14111919  0.23461148    -0.25700
C866        C  0.75464174  0.16966061  0.23788836     0.36800
C867        C  0.81846786  0.23227255  0.21717496     0.06400
F868        F  0.82372351  0.17570741  0.21331902    -0.19500
H869        H  0.78096209  0.12274039  0.22397984     0.16200
F870        F  0.73201104  0.16849403  0.24568406    -0.23200
H871        H  0.77489941  0.22103123  0.23488014     0.18000
C872        C  0.81189356  0.23303149  0.20487748     0.26000
C873        C  0.82911602  0.26192355  0.19832522    -0.11700
C874        C  0.85344023  0.29060063  0.20386873    -0.25700
C875        C  0.86007024  0.28972031  0.21621868     0.36900
C876        C  0.84245309  0.26079534  0.22281746    -0.27400
F877        F  0.78822413  0.20593816  0.19928110    -0.19500
H878        H  0.82315184  0.26195963  0.18889679     0.16200
F879        F  0.88417524  0.31644147  0.22182922    -0.23200
H880        H  0.84777178  0.26050512  0.23230302     0.18000
C881        C  0.87569809  0.14623330  0.08932822    -0.27200
C882        C  0.87331217  0.17460761  0.08985003     0.06400
C883        C  0.84806485  0.17371956  0.09689070     0.26000
C884        C  0.82560457  0.14510742  0.10290382    -0.11700
C885        C  0.82811573  0.11675359  0.10246491    -0.25700
C886        C  0.85405157  0.11803371  0.09572403     0.36800
C887        C  0.89724875  0.20494578  0.08320867     0.06400
F888        F  0.84544426  0.20075600  0.09827510    -0.19500
H889        H  0.80608898  0.14528230  0.10790221     0.16200
F890        F  0.85944108  0.09251064  0.09557110    -0.23200
H891        H  0.89446546  0.14572519  0.08393841     0.18000
C892        C  0.93086898  0.21524111  0.08281748     0.26000
C893        C  0.95304123  0.24441170  0.07703343    -0.11700
C894        C  0.94256312  0.26455011  0.07179614    -0.25700
C895        C  0.90901234  0.25402791  0.07191535     0.36900
C896        C  0.88668799  0.22437568  0.07735299    -0.27400
F897        F  0.94278486  0.19823153  0.08861419    -0.19500
H898        H  0.97879600  0.25221173  0.07727792     0.16200
F899        F  0.89777227  0.27257668  0.06686528    -0.23200
H900        H  0.86102018  0.21682247  0.07708219     0.18000
C901        C  0.76064712  0.07353811  0.15958870    -0.27200
C902        C  0.72762359  0.05074164  0.16184639     0.06400
C903        C  0.70712957  0.03410795  0.15202674     0.26000
C904        C  0.71983699  0.03906256  0.14035170    -0.11700
C905        C  0.75326542  0.06033796  0.13817941    -0.25700
C906        C  0.77345337  0.07823640  0.14789304     0.36800
C907        C  0.71502451  0.04336672  0.17443644     0.06400
F908        F  0.67524497  0.01149312  0.15377284    -0.19500
H909        H  0.70374637  0.02504514  0.13302198     0.16200
F910        F  0.80593848  0.09852557  0.14625310    -0.23200
H911        H  0.77680489  0.08708863  0.16696287     0.18000
C912        C  0.73197897  0.03705359  0.18347953     0.26000
C913        C  0.71991121  0.03004726  0.19527929    -0.11700
C914        C  0.69048934  0.02876281  0.19833089    -0.25700
C915        C  0.67327712  0.03460831  0.18921597     0.36900
C916        C  0.68556146  0.04195748  0.17745225    -0.27400
F917        F  0.75991001  0.03696380  0.18086864    -0.19500
H918        H  0.73366375  0.02556072  0.20204696     0.16200
F919        F  0.64509859  0.03433401  0.19170156    -0.23200
H920        H  0.67221080  0.04707138  0.17070923     0.18000
C921        C  0.97443716  0.39494352  0.98470402    -0.27200
C922        C  0.95378504  0.37824012  0.99442005     0.06400
C923        C  0.91991088  0.36430280  0.99304560     0.26000
C924        C  0.90693076  0.36682030  0.98208255    -0.11700
C925        C  0.92744990  0.38350689  0.97231150    -0.25700
C926        C  0.96143194  0.39778835  0.97372593     0.36800
C927        C  0.96738621  0.37640337  0.00617950     0.06400
F928        F  0.89936344  0.34788622  0.00228413    -0.19500
H929        H  0.88070560  0.35576871  0.98122337     0.16200
F930        F  0.98193293  0.41367707  0.96442573    -0.23200
H931        H  0.00063108  0.40602270  0.98567807     0.18000
C932        C  0.98441544  0.35943371  0.00755603     0.26000
C933        C  0.99482600  0.35597587  0.01902600    -0.11700
C934        C  0.98846629  0.36951477  0.02924742    -0.25700
C935        C  0.97254665  0.38769804  0.02764898     0.36900
C936        C  0.96198245  0.39078434  0.01626163    -0.27400
F937        F  0.98981101  0.34518270  0.99789653    -0.19500
H938        H  0.00714161  0.34206888  0.01994284     0.16200
F939        F  0.96707107  0.40263149  0.03707134    -0.23200
H940        H  0.94928666  0.40433230  0.01530216     0.18000
C941        C  0.96111124  0.49398318  0.92731965    -0.27200
C942        C  0.93886463  0.50471466  0.92499313     0.06400
C943        C  0.90620099  0.48516612  0.92867319     0.26000
C944        C  0.89621683  0.45564851  0.93462189    -0.11700
C945        C  0.91866143  0.44537380  0.93716248    -0.25700
C946        C  0.95121328  0.46471262  0.93343001     0.36800
C947        C  0.95018470  0.53687922  0.91922700     0.06400
F948        F  0.88422651  0.49516372  0.92694590    -0.19500
H949        H  0.87107318  0.44110760  0.93750410     0.16200
F950        F  0.97327603  0.45500527  0.93551260    -0.23200
H951        H  0.98624384  0.50835329  0.92441452     0.18000
C952        C  0.97806684  0.56481225  0.92357743     0.26000
C953        C  0.98776332  0.59530633  0.91857698    -0.11700
C954        C  0.96979295  0.59889832  0.90919639    -0.25700
C955        C  0.94224656  0.57076416  0.90463573     0.36900
C956        C  0.93269789  0.54009653  0.90960305    -0.27400
F957        F  0.99513120  0.56294311  0.93307565    -0.19500
H958        H  0.00890807  0.61634137  0.92239216     0.16200
F959        F  0.92417614  0.57278174  0.89554185    -0.23200
H960        H  0.91140228  0.51881894  0.90599203     0.18000
C961        C  0.07401456  0.57296450  0.03732162    -0.27200
C962        C  0.07111364  0.57116269  0.04993895     0.06400
C963        C  0.07795705  0.59936611  0.05643983     0.26000
C964        C  0.08714797  0.62866240  0.05036341    -0.11700
C965        C  0.08998116  0.63050236  0.03770372    -0.25700
C966        C  0.08351256  0.60225641  0.03125058     0.36800
C967        C  0.06104020  0.53971050  0.05612951     0.06400
F968        F  0.07504654  0.59839667  0.06862976    -0.19500
H969        H  0.09177808  0.64991299  0.05556646     0.16200
F970        F  0.08748490  0.60315543  0.01910891    -0.23200
H971        H  0.06940371  0.55164800  0.03216012     0.18000
C972        C  0.03195781  0.51145116  0.05284182     0.26000
C973        C  0.02382005  0.48127926  0.05787876    -0.11700
C974        C  0.04462954  0.47836927  0.06623201    -0.25700
C975        C  0.07330622  0.50698466  0.06982898     0.36900
C976        C  0.08124049  0.53731937  0.06485306    -0.27400
F977        F  0.01152715  0.51298371  0.04462783    -0.19500
H978        H  0.00158503  0.45993467  0.05487800     0.16200
F979        F  0.09407894  0.50569021  0.07793390    -0.23200
H980        H  0.10380283  0.55883624  0.06749959     0.18000
C981        C  0.01752559  0.70236254  0.96602702    -0.27200
C982        C  0.04916994  0.70814044  0.96819014     0.06400
C983        C  0.07145620  0.71799668  0.95859293     0.26000
C984        C  0.06188576  0.72093962  0.94696157    -0.11700
C985        C  0.02995212  0.71433310  0.94465061    -0.25700
C986        C  0.00788437  0.70537103  0.95437139     0.36800
C987        C  0.05863711  0.70266992  0.98031894     0.06400
F988        F  0.10260986  0.72499527  0.96050212    -0.19500
H989        H  0.07957541  0.72841252  0.93973497     0.16200
F990        F  0.97668953  0.69836651  0.95257843    -0.23200
H991        H  0.00001670  0.69466793  0.97332462     0.18000
C992        C  0.05830778  0.72057475  0.99036741     0.26000
C993        C  0.06934159  0.71646440  0.00158640    -0.11700
C994        C  0.08034068  0.69408062  0.00300208    -0.25700
C995        C  0.07967118  0.67546846  0.99302138     0.36900
C996        C  0.06907007  0.67990560  0.98178044    -0.27400
F997        F  0.04864531  0.74297130  0.98921395    -0.19500
H998        H  0.06984678  0.73116998  0.00915460     0.16200
F999        F  0.09084364  0.65423312  0.99399019    -0.23200
H1000       H  0.06938993  0.66583879  0.97413331     0.18000
C1001       C  0.64188377  0.72923009  0.32124191    -0.27200
C1002       C  0.62043945  0.71158795  0.33069226     0.06400
C1003       C  0.58659246  0.69566148  0.32855574     0.26000
C1004       C  0.57464124  0.69748844  0.31726542    -0.11700
C1005       C  0.59600305  0.71483224  0.30777893    -0.25700
C1006       C  0.62985082  0.73075158  0.30986302     0.36800
C1007       C  0.63314805  0.70985871  0.34276656     0.06400
F1008       F  0.56496118  0.67751755  0.33728399    -0.19500
H1009       H  0.54846882  0.68507966  0.31590467     0.16200
F1010       F  0.65127489  0.74683575  0.30082117    -0.23200
H1011       H  0.66802229  0.74193160  0.32267535     0.18000
C1012       C  0.65811333  0.70222553  0.34408122     0.26000
C1013       C  0.66848097  0.69912803  0.35558904    -0.11700
C1014       C  0.65420933  0.70355496  0.36601239    -0.25700
C1015       C  0.62956373  0.71172796  0.36462620     0.36900
C1016       C  0.61946015  0.71501636  0.35315894    -0.27400
F1017       F  0.67178381  0.69671316  0.33427009    -0.19500
H1018       H  0.68755909  0.69299951  0.35632410     0.16200
F1019       F  0.61470996  0.71616275  0.37431629    -0.23200
H1020       H  0.60067177  0.72155180  0.35240759     0.18000
C1021       C  0.60423552  0.80671130  0.25275053    -0.27200
C1022       C  0.61170339  0.83504227  0.25924557     0.06400
C1023       C  0.60842290  0.83330610  0.27184338     0.26000
C1024       C  0.59746591  0.80363370  0.27781998    -0.11700
C1025       C  0.59000931  0.77506553  0.27140209    -0.25700
C1026       C  0.59382950  0.77703238  0.25874901     0.36800
C1027       C  0.62215168  0.86630608  0.25293049     0.06400
F1028       F  0.61509382  0.86023810  0.27834596    -0.19500
H1029       H  0.59440442  0.80296914  0.28750926     0.16200
F1030       F  0.58845492  0.75059009  0.25219765    -0.23200
H1031       H  0.60688050  0.80771614  0.24303418     0.18000
C1032       C  0.65346030  0.89322447  0.25478231     0.26000
C1033       C  0.66206970  0.92352807  0.24972072    -0.11700
C1034       C  0.63954211  0.92781995  0.24280021    -0.25700
C1035       C  0.60838088  0.90040040  0.24069840     0.36900
C1036       C  0.59999011  0.86997541  0.24566290    -0.27400
F1037       F  0.67556406  0.89029557  0.26164961    -0.19500
H1038       H  0.68622331  0.94390632  0.25154040     0.16200
F1039       F  0.58557198  0.90302100  0.23418222    -0.23200
H1040       H  0.57568012  0.84945394  0.24419775     0.18000
C1041       C  0.69800866  0.84610574  0.39082421    -0.27200
C1042       C  0.72926134  0.87327502  0.39226300     0.06400
C1043       C  0.75218703  0.87050844  0.39942442     0.26000
C1044       C  0.74422310  0.84056372  0.40469088    -0.11700
C1045       C  0.71317411  0.81285569  0.40296810    -0.25700
C1046       C  0.68986252  0.81624010  0.39613373     0.36800
C1047       C  0.73819626  0.90392242  0.38579248     0.06400
F1048       F  0.78280226  0.89633393  0.40080928    -0.19500
H1049       H  0.76278772  0.83886129  0.40979227     0.16200
F1050       F  0.65954866  0.79047711  0.39410198    -0.23200
H1051       H  0.68001892  0.84791536  0.38537236     0.18000
C1052       C  0.73748137  0.90443884  0.37313852     0.26000
C1053       C  0.74668782  0.93356255  0.36702415    -0.11700
C1054       C  0.75620728  0.96269590  0.37338841    -0.25700
C1055       C  0.75606486  0.96183962  0.38612100     0.36900
C1056       C  0.74751028  0.93277145  0.39221718    -0.27400
F1057       F  0.72871793  0.87690473  0.36667923    -0.19500
H1058       H  0.74693498  0.93337150  0.35726424     0.16200
F1059       F  0.76333220  0.98878454  0.39271742    -0.23200
H1060       H  0.74769406  0.93263401  0.40198275     0.18000
C1061       C  0.73429371  0.02917105  0.29180676    -0.27200
C1062       C  0.71644056  0.03093973  0.30158831     0.06400
C1063       C  0.69138181  0.03793108  0.29933134     0.26000
C1064       C  0.68443197  0.04299161  0.28753744    -0.11700
C1065       C  0.70216565  0.04109201  0.27770339    -0.25700
C1066       C  0.72728224  0.03404318  0.28000097     0.36800
C1067       C  0.72497165  0.02672283  0.31409928     0.06400
F1068       F  0.67311899  0.03923177  0.30850640    -0.19500
H1069       H  0.66482987  0.04809674  0.28611653     0.16200
F1070       F  0.74538562  0.03208714  0.27090345    -0.23200
H1071       H  0.75415112  0.02449121  0.29332120     0.18000
C1072       C  0.73006088  0.00076406  0.31712577     0.26000
C1073       C  0.74055267  0.99862985  0.32871196    -0.11700
C1074       C  0.74610152  0.02223442  0.33749416    -0.25700
C1075       C  0.73953558  0.04730993  0.33462216     0.36900
C1076       C  0.72935971  0.04960304  0.32302785    -0.27400
F1077       F  0.72508176  0.97755626  0.30886772    -0.19500
H1078       H  0.74545194  0.97912351  0.33069065     0.16200
F1079       F  0.74325848  0.06984200  0.34299631    -0.23200
H1080       H  0.72576965  0.06989479  0.32093825     0.18000
C1081       C  0.36701687  0.18857582  0.73229314    -0.27200
C1082       C  0.39742694  0.20752475  0.72658616     0.06400
C1083       C  0.41934556  0.19559199  0.72637535     0.26000
C1084       C  0.41096848  0.16568092  0.73167605    -0.11700
C1085       C  0.38020856  0.14628314  0.73695581    -0.25700
C1086       C  0.35821593  0.15800825  0.73724109     0.36800
C1087       C  0.40602537  0.23901802  0.72053059     0.06400
F1088       F  0.44824980  0.21187206  0.72045325    -0.19500
H1089       H  0.42802925  0.15684802  0.73106667     0.16200
F1090       F  0.32824980  0.13994042  0.74228260    -0.23200
H1091       H  0.34986478  0.19726983  0.73284478     0.18000
C1092       C  0.38342681  0.24216072  0.71321188     0.26000
C1093       C  0.39298322  0.27095437  0.70673731    -0.11700
C1094       C  0.42539589  0.29705208  0.70714349    -0.25700
C1095       C  0.44776029  0.29404916  0.71466505     0.36900
C1096       C  0.43789723  0.26577712  0.72144255    -0.27400
F1097       F  0.35248177  0.21694989  0.71182045    -0.19500
H1098       H  0.37499721  0.27253789  0.70121307     0.16200
F1099       F  0.47971674  0.31755637  0.71502681    -0.23200
H1100       H  0.45568946  0.26454108  0.72720056     0.18000
C1101       C  0.31948567  0.04039415  0.67789343    -0.27200
C1102       C  0.30074804  0.05574664  0.67717454     0.06400
C1103       C  0.29151596  0.06482540  0.68785869     0.26000
C1104       C  0.30010969  0.05787591  0.69902139    -0.11700
C1105       C  0.31818680  0.04176163  0.69983942    -0.25700
C1106       C  0.32825171  0.03348951  0.68910069     0.36800
C1107       C  0.28876524  0.05995139  0.66535657     0.06400
F1108       F  0.27416955  0.08049404  0.68750953    -0.19500
H1109       H  0.29240311  0.06513619  0.70706145     0.16200
F1110       F  0.34601269  0.01826159  0.68936924    -0.23200
H1111       H  0.32655158  0.03287613  0.66975555     0.18000
C1112       C  0.31000004  0.07419996  0.65550943     0.26000
C1113       C  0.29756598  0.07526185  0.64417013    -0.11700
C1114       C  0.26385682  0.06189162  0.64250133    -0.25700
C1115       C  0.24285594  0.04893012  0.65244838     0.36900
C1116       C  0.25524348  0.04799719  0.66375437    -0.27400
F1117       F  0.34261202  0.08660867  0.65681947    -0.19500
H1118       H  0.31405414  0.08516502  0.63657191     0.16200
F1119       F  0.21020724  0.03628171  0.65112955    -0.23200
H1120       H  0.23841276  0.03674297  0.67118423     0.18000
C1121       C  0.32618891  0.04342368  0.80055278    -0.27200
C1122       C  0.29213594  0.02525394  0.80179024     0.06400
C1123       C  0.27250725  0.01297055  0.79149381     0.26000
C1124       C  0.28668312  0.01943408  0.78010633    -0.11700
C1125       C  0.32076002  0.03835699  0.77872353    -0.25700
C1126       C  0.34052221  0.05002165  0.78910665     0.36800
C1127       C  0.27690389  0.02136246  0.81369939     0.06400
F1128       F  0.23953489  0.99477282  0.79246714    -0.19500
H1129       H  0.27077375  0.00959053  0.77234190     0.16200
F1130       F  0.37348642  0.06844060  0.78823552    -0.23200
H1131       H  0.34159209  0.05333385  0.80844228     0.18000
C1132       C  0.28408431  0.00681500  0.82334919     0.26000
C1133       C  0.27005357  0.00451706  0.83466298    -0.11700
C1134       C  0.24918383  0.01712421  0.83645247    -0.25700
C1135       C  0.24149405  0.03097587  0.82672074     0.36900
C1136       C  0.25522418  0.03298474  0.81543752    -0.27400
F1137       F  0.30462031  0.99495780  0.82181993    -0.19500
H1138       H  0.27629647  0.99393369  0.84212109     0.16200
F1139       F  0.22101697  0.04293592  0.82819333    -0.23200
H1140       H  0.24951790  0.04432202  0.80808446     0.18000
C1141       C  0.09920160  0.86828354  0.89958716    -0.27200
C1142       C  0.12323834  0.87140303  0.89147429     0.06400
C1143       C  0.12593009  0.84408733  0.88858910     0.26000
C1144       C  0.10416875  0.81374128  0.89351063    -0.11700
C1145       C  0.07905659  0.80999839  0.90130223    -0.25700
C1146       C  0.07708344  0.83781148  0.90444519     0.36800
C1147       C  0.14425645  0.90270265  0.88543729     0.06400
F1148       F  0.14925634  0.84671008  0.88081562    -0.19500
H1149       H  0.10647513  0.79297078  0.89090845     0.16200
F1150       F  0.05311587  0.83551123  0.91179120    -0.23200
H1151       H  0.09688118  0.88927651  0.90181602     0.18000
C1152       C  0.13998217  0.90613048  0.87312703     0.26000
C1153       C  0.16052268  0.93544313  0.86727461    -0.11700
C1154       C  0.18597288  0.96169646  0.87355696    -0.25700
C1155       C  0.19005988  0.95817568  0.88594830     0.36900
C1156       C  0.16910139  0.92889491  0.89184192    -0.27400
F1157       F  0.11582064  0.88111382  0.86679704    -0.19500
H1158       H  0.15647338  0.93764063  0.85779693     0.16200
F1159       F  0.21498963  0.98244400  0.89225433    -0.23200
H1160       H  0.17271179  0.92633558  0.90133338     0.18000
C1161       C  0.21169122  0.83827947  0.77130654    -0.27200
C1162       C  0.20847592  0.83971816  0.75877146     0.06400
C1163       C  0.18591671  0.81143753  0.75258623     0.26000
C1164       C  0.16633250  0.78242669  0.75890676    -0.11700
C1165       C  0.16915742  0.78087067  0.77150811    -0.25700
C1166       C  0.19253911  0.80914800  0.77762478     0.36800
C1167       C  0.22856518  0.87093056  0.75228081     0.06400
F1168       F  0.18218726  0.81214364  0.74047634    -0.19500
H1169       H  0.14843958  0.76127654  0.75393891     0.16200
F1170       F  0.19749352  0.80851539  0.78965462    -0.23200
H1171       H  0.22934390  0.85977458  0.77619064     0.18000
C1172       C  0.22443333  0.89775039  0.75454535     0.26000
C1173       C  0.24503919  0.92791438  0.74912419    -0.11700
C1174       C  0.27054789  0.93218503  0.74141707    -0.25700
C1175       C  0.27376317  0.90475729  0.73880120     0.36900
C1176       C  0.25281768  0.87446007  0.74415514    -0.27400
F1177       F  0.20067632  0.89484189  0.76214991    -0.19500
H1178       H  0.24170355  0.94828804  0.75136171     0.16200
F1179       F  0.29768441  0.90727764  0.73137811    -0.23200
H1180       H  0.25622424  0.85394360  0.74227068     0.18000
C1181       C  0.04783090  0.69632614  0.82002002    -0.27200
C1182       C  0.06646198  0.71662292  0.82957783     0.06400
C1183       C  0.09927902  0.74043536  0.82737899     0.26000
C1184       C  0.11338823  0.74261820  0.81605296    -0.11700
C1185       C  0.09510000  0.72127028  0.80666915    -0.25700
C1186       C  0.06180822  0.69873384  0.80868157     0.36800
C1187       C  0.05212746  0.71145938  0.84191539     0.06400
F1188       F  0.11780811  0.76148085  0.83620736    -0.19500
H1189       H  0.13896237  0.76034799  0.81473897     0.16200
F1190       F  0.04273394  0.67882059  0.79969056    -0.23200
H1191       H  0.02257613  0.67776998  0.82141915     0.18000
C1192       C  0.02080367  0.70708212  0.84386525     0.26000
C1193       C  0.00738905  0.70101614  0.85549298    -0.11700
C1194       C  0.02483025  0.69922894  0.86546665    -0.25700
C1195       C  0.05620333  0.70362474  0.86346149     0.36900
C1196       C  0.06945747  0.70950171  0.85184504    -0.27400
F1197       F  0.00339016  0.70937380  0.83458363    -0.19500
H1198       H  0.98337873  0.69807592  0.85668742     0.16200
F1199       F  0.07430500  0.70227255  0.87268744    -0.23200
H1200       H  0.09329517  0.71206040  0.85059088     0.18000
C1201       C  0.97115659  0.52853245  0.21528576    -0.27200
C1202       C  0.93869799  0.51091840  0.21122895     0.06400
C1203       C  0.91931057  0.52570529  0.21183811     0.26000
C1204       C  0.93231298  0.55732169  0.21654294    -0.11700
C1205       C  0.96499977  0.57490120  0.22033104    -0.25700
C1206       C  0.98436589  0.56028450  0.21956822     0.36800
C1207       C  0.92593221  0.47735366  0.20643594     0.06400
F1208       F  0.88812478  0.50993662  0.20771157    -0.19500
H1209       H  0.91699962  0.56820083  0.21713281     0.16200
F1210       F  0.01571836  0.57612258  0.22354483    -0.23200
H1211       H  0.98636934  0.51750038  0.21531929     0.18000
C1212       C  0.94544669  0.47068108  0.19875603     0.26000
C1213       C  0.93522258  0.43889214  0.19516880    -0.11700
C1214       C  0.90452026  0.41284809  0.19855698    -0.25700
C1215       C  0.88440275  0.41949111  0.20597296     0.36900
C1216       C  0.89525767  0.45144455  0.20997443    -0.27400
F1217       F  0.97446412  0.49499034  0.19456722    -0.19500
H1218       H  0.95165855  0.43476424  0.18965497     0.16200
F1219       F  0.85412069  0.39544539  0.20915799    -0.23200
H1220       H  0.87983623  0.45582658  0.21596947     0.18000
C1221       C  0.79768035  0.65450732  0.21460229    -0.27200
C1222       C  0.80609254  0.63044412  0.21674278     0.06400
C1223       C  0.78396837  0.59798257  0.21340127     0.26000
C1224       C  0.75452513  0.59017196  0.20772051    -0.11700
C1225       C  0.74676588  0.61454653  0.20521355    -0.25700
C1226       C  0.76845327  0.64676016  0.20885442     0.36800
C1227       C  0.83844116  0.63991728  0.22205776     0.06400
F1228       F  0.79135467  0.57409330  0.21515932    -0.19500
H1229       H  0.73816462  0.56519928  0.20495436     0.16200
F1230       F  0.76120962  0.67070623  0.20697944    -0.23200
H1231       H  0.81394466  0.67951510  0.21734985     0.18000
C1232       C  0.86684057  0.66664470  0.21736731     0.26000
C1233       C  0.89718669  0.67642351  0.22256211    -0.11700
C1234       C  0.90021626  0.65957255  0.23245591    -0.25700
C1235       C  0.87179503  0.63237637  0.23704130     0.36900
C1236       C  0.84123512  0.62284067  0.23190790    -0.27400
F1237       F  0.86540737  0.68282138  0.20750150    -0.19500
H1238       H  0.91852652  0.69689441  0.21859072     0.16200
F1239       F  0.87337940  0.61501173  0.24647691    -0.23200
H1240       H  0.81967133  0.60227296  0.23571412     0.18000
C1241       C  0.01601464  0.71703631  0.17647022    -0.27200
C1242       C  0.00411079  0.73855865  0.17492892     0.06400
C1243       C  0.99456926  0.74937562  0.18508348     0.26000
C1244       C  0.99861839  0.74033064  0.19662504    -0.11700
C1245       C  0.01213386  0.72012926  0.19833307    -0.25700
C1246       C  0.02001796  0.70779867  0.18807423     0.36800
C1247       C  0.00444924  0.75231941  0.16293840     0.06400
F1248       F  0.98184673  0.76926155  0.18382144    -0.19500
H1249       H  0.99143855  0.74956076  0.20425759     0.16200
F1250       F  0.03251944  0.68771089  0.18921067    -0.23200
H1251       H  0.02338846  0.70841436  0.16870809     0.18000
C1252       C  0.02315337  0.78616862  0.16120704     0.26000
C1253       C  0.02249561  0.79988068  0.15018876    -0.11700
C1254       C  0.00341426  0.78018366  0.14058517    -0.25700
C1255       C  0.98521828  0.74608719  0.14220417     0.36900
C1256       C  0.98587061  0.73229643  0.15332260    -0.27400
F1257       F  0.04221656  0.80601508  0.17021646    -0.19500
H1258       H  0.03664948  0.82615320  0.14922584     0.16200
F1259       F  0.96733229  0.72613637  0.13302231    -0.23200
H1260       H  0.97153687  0.70610167  0.15449679     0.18000
C1261       C  0.50833437  0.00716350  0.25943728    -0.27200
C1262       C  0.48945218  0.97527979  0.26395968     0.06400
C1263       C  0.50360638  0.95528210  0.26451734     0.26000
C1264       C  0.53559361  0.96689987  0.26043366    -0.11700
C1265       C  0.55435787  0.99891302  0.25612806    -0.25700
C1266       C  0.54051484  0.01905587  0.25575284     0.36800
C1267       C  0.45520567  0.96341473  0.26794982     0.06400
F1268       F  0.48679979  0.92471962  0.26915974    -0.19500
H1269       H  0.54580065  0.95096234  0.26068339     0.16200
F1270       F  0.55751345  0.04971799  0.25116793    -0.23200
H1271       H  0.49796329  0.02283708  0.25849482     0.18000
C1272       C  0.44746482  0.98392676  0.27458283     0.26000
C1273       C  0.41525362  0.97356177  0.27774637    -0.11700
C1274       C  0.38980005  0.94186872  0.27497496    -0.25700
C1275       C  0.39755489  0.92100445  0.26853400     0.36900
C1276       C  0.42980517  0.93193073  0.26491018    -0.27400
F1277       F  0.47112686  0.01388102  0.27830796    -0.19500
H1278       H  0.41038141  0.99061864  0.28249637     0.16200
F1279       F  0.37437594  0.88977009  0.26604531    -0.23200
H1280       H  0.43484661  0.91567751  0.25968067     0.18000
C1281       C  0.23250615  0.86178696  0.25224098    -0.27200
C1282       C  0.20619725  0.83711000  0.25873054     0.06400
C1283       C  0.21067047  0.83269826  0.27098229     0.26000
C1284       C  0.24027941  0.85344423  0.27670718    -0.11700
C1285       C  0.26626739  0.87888245  0.27036493    -0.25700
C1286       C  0.26229650  0.88257035  0.25798585     0.36800
C1287       C  0.17402151  0.81632477  0.25282039     0.06400
F1288       F  0.18647077  0.80808229  0.27741652    -0.19500
H1289       H  0.24291190  0.84966978  0.28617762     0.16200
F1290       F  0.28659044  0.90712797  0.25157503    -0.23200
H1291       H  0.22964601  0.86556641  0.24279441     0.18000
C1292       C  0.14524209  0.81232309  0.25809056     0.26000
C1293       C  0.11484635  0.79104635  0.25297762    -0.11700
C1294       C  0.11228947  0.77315309  0.24249828    -0.25700
C1295       C  0.14122286  0.77826843  0.23691191     0.36900
C1296       C  0.17174245  0.79977161  0.24202201    -0.27400
F1297       F  0.14646929  0.82894130  0.26824016    -0.19500
H1298       H  0.09315741  0.78782617  0.25749270     0.16200
F1299       F  0.14009722  0.76230414  0.22659763    -0.23200
H1300       H  0.19360833  0.80276300  0.23773130     0.18000
C1301       C  0.93033309  0.82875580  0.37438205    -0.27200
C1302       C  0.90305917  0.79728372  0.37325993     0.06400
C1303       C  0.90731482  0.77207700  0.36862665     0.26000
C1304       C  0.93818225  0.77825661  0.36519672    -0.11700
C1305       C  0.96554462  0.80971730  0.36619295    -0.25700
C1306       C  0.96134988  0.83504080  0.37084771     0.36800
C1307       C  0.87042231  0.78997236  0.37748777     0.06400
F1308       F  0.88174151  0.74113116  0.36776952    -0.19500
H1309       H  0.94073715  0.75818494  0.36185127     0.16200
F1310       F  0.98691945  0.86598236  0.37165498    -0.23200
H1311       H  0.92752622  0.84852558  0.37789739     0.18000
C1312       C  0.86597495  0.79712572  0.38938404     0.26000
C1313       C  0.83452255  0.78473782  0.39400136    -0.11700
C1314       C  0.80689236  0.76475498  0.38689542    -0.25700
C1315       C  0.81146054  0.75990254  0.37468050     0.36900
C1316       C  0.84297247  0.77249117  0.37005515    -0.27400
F1317       F  0.89190462  0.81376190  0.39685477    -0.19500
H1318       H  0.83194138  0.78909963  0.40341618     0.16200
F1319       F  0.78562609  0.74182326  0.36732930    -0.23200
H1320       H  0.84596030  0.76733638  0.36077362     0.18000
C1321       C  0.04693028  0.79148120  0.31476155    -0.27200
C1322       C  0.02213633  0.75899377  0.31283220     0.06400
C1323       C  0.00215139  0.74108798  0.32255782     0.26000
C1324       C  0.00588473  0.75594615  0.33378665    -0.11700
C1325       C  0.02958134  0.78889810  0.33557896    -0.25700
C1326       C  0.05072964  0.80635845  0.32603857     0.36800
C1327       C  0.01580421  0.74450767  0.30055428     0.06400
F1328       F  0.97771724  0.70980763  0.32102825    -0.19500
H1329       H  0.98943958  0.74195725  0.34102719     0.16200
F1330       F  0.07367112  0.83829258  0.32738040    -0.23200
H1331       H  0.06282470  0.80560442  0.30741924     0.18000
C1332       C  0.01106817  0.76053115  0.29077987     0.26000
C1333       C  0.00391919  0.74629790  0.27931834    -0.11700
C1334       C  0.00127195  0.71573273  0.27730053    -0.25700
C1335       C  0.00606945  0.69971128  0.28713019     0.36900
C1336       C  0.01319294  0.71400955  0.29861080    -0.27400
F1337       F  0.01250534  0.78962067  0.29236844    -0.19500
H1338       H  0.00043453  0.75934655  0.27199786     0.16200
F1339       F  0.00458210  0.67057092  0.28566279    -0.23200
H1340       H  0.01696692  0.70134343  0.30600128     0.18000
C1341       C  0.43892029  0.28369079  0.42538274    -0.27200
C1342       C  0.43812427  0.26167034  0.43405003     0.06400
C1343       C  0.44922419  0.27284857  0.44576735     0.26000
C1344       C  0.45937566  0.30506713  0.44890060    -0.11700
C1345       C  0.45816769  0.32667646  0.44048387    -0.25700
C1346       C  0.44871781  0.31594095  0.42855472     0.36800
C1347       C  0.42443542  0.22686427  0.43089961     0.06400
F1348       F  0.44986360  0.25248452  0.45421970    -0.19500
H1349       H  0.46737084  0.31292980  0.45806871     0.16200
F1350       F  0.44695789  0.33584189  0.42017348    -0.23200
H1351       H  0.43055379  0.27546025  0.41627414     0.18000
C1352       C  0.39742245  0.20227519  0.43715765     0.26000
C1353       C  0.38257315  0.16979121  0.43327935    -0.11700
C1354       C  0.39436818  0.16132845  0.42309481    -0.25700
C1355       C  0.42267080  0.18587329  0.41730325     0.36900
C1356       C  0.43725360  0.21825808  0.42113395    -0.27400
F1357       F  0.38416136  0.20995439  0.44655143    -0.19500
H1358       H  0.36082360  0.15159238  0.43786661     0.16200
F1359       F  0.43581396  0.17888185  0.40768074    -0.23200
H1360       H  0.45829482  0.23683205  0.41631453     0.18000
C1361       C  0.18294933  0.95782313  0.39258736    -0.27200
C1362       C  0.17257515  0.92443695  0.39210149     0.06400
C1363       C  0.19188896  0.91315271  0.39749771     0.26000
C1364       C  0.22192816  0.93527123  0.40273887    -0.11700
C1365       C  0.23280151  0.96885566  0.40292838    -0.25700
C1366       C  0.21260054  0.97985886  0.39804699     0.36800
C1367       C  0.14295222  0.90209518  0.38513672     0.06400
F1368       F  0.18255262  0.88101276  0.39710566    -0.19500
H1369       H  0.23710663  0.92625721  0.40638844     0.16200
F1370       F  0.22250375  0.01215540  0.39778314    -0.23200
H1371       H  0.16837312  0.96692014  0.38844848     0.18000
C1372       C  0.11596538  0.87570465  0.39068602     0.26000
C1373       C  0.08803281  0.85527578  0.38392145    -0.11700
C1374       C  0.08677752  0.86056479  0.37149973    -0.25700
C1375       C  0.11398293  0.88680051  0.36595474     0.36900
C1376       C  0.14167276  0.90745003  0.37275039    -0.27400
F1377       F  0.11635132  0.87021114  0.40267928    -0.19500
H1378       H  0.06732916  0.83524435  0.38837591     0.16200
F1379       F  0.11338053  0.89312248  0.35405082    -0.23200
H1380       H  0.16227047  0.92770281  0.36833474     0.18000
C1381       C  0.32542699  0.01866689  0.34397925    -0.27200
C1382       C  0.32650783  0.99017838  0.34153258     0.06400
C1383       C  0.33419334  0.97514900  0.35086291     0.26000
C1384       C  0.34010002  0.98810889  0.36249042    -0.11700
C1385       C  0.33897615  0.01655805  0.36499408    -0.25700
C1386       C  0.33154263  0.03180179  0.35562521     0.36800
C1387       C  0.32163426  0.97719676  0.32912905     0.06400
F1388       F  0.33709711  0.94855961  0.34863657    -0.19500
H1389       H  0.34609781  0.97614645  0.36952340     0.16200
F1390       F  0.32931714  0.05881042  0.35777710    -0.23200
H1391       H  0.31967962  0.03061301  0.33686376     0.18000
C1392       C  0.29881107  0.94433593  0.32665126     0.26000
C1393       C  0.29771630  0.93129016  0.31523129    -0.11700
C1394       C  0.31941203  0.95083017  0.30616990    -0.11300
C1395       C  0.34072729  0.98423891  0.30845754     0.36900
C1396       C  0.34174872  0.99723144  0.31984763    -0.27400
F1397       F  0.27817574  0.92473996  0.33536696    -0.19500
H1398       H  0.28095221  0.90559758  0.31363391     0.16200
F1399       F  0.36111966  0.00416325  0.29974818    -0.23200
H1400       H  0.35927221  0.02267105  0.32157539     0.18000
C1401       C  0.58140200  0.84868132  0.55447954    -0.27200
C1402       C  0.59614985  0.84243884  0.54469420     0.06400
C1403       C  0.62181984  0.86876574  0.53856144     0.26000
C1404       C  0.63456839  0.90051523  0.54289567    -0.11700
C1405       C  0.62186150  0.90659114  0.55338940    -0.25700
C1406       C  0.59401352  0.88046496  0.55881093     0.36800
C1407       C  0.58696739  0.80853122  0.54166194     0.06400
F1408       F  0.63544830  0.86358753  0.52865620    -0.19500
H1409       H  0.65552148  0.92007451  0.53837772     0.16200
F1410       F  0.57981936  0.88523874  0.56863379    -0.23200
H1411       H  0.56126136  0.82872183  0.55919552     0.18000
C1412       C  0.61113133  0.79964932  0.54125432     0.26000
C1413       C  0.60301150  0.76810062  0.53800961    -0.11700
C1414       C  0.57065733  0.74468808  0.53532865    -0.25700
C1415       C  0.54611339  0.75292761  0.53624563     0.36900
C1416       C  0.55428732  0.78476653  0.53942031    -0.27400
F1417       F  0.64261482  0.82146409  0.54408846    -0.19500
H1418       H  0.62210811  0.76194216  0.53743476     0.16200
F1419       F  0.51466299  0.73068101  0.53356876    -0.23200
H1420       H  0.53531774  0.79111300  0.53983833     0.18000
C1421       C  0.63353922  0.09418614  0.49447296    -0.27200
C1422       C  0.65833648  0.08694021  0.49686157     0.06400
C1423       C  0.68119487  0.09232152  0.48778198     0.26000
C1424       C  0.67943318  0.10503893  0.47663462    -0.11700
C1425       C  0.65517615  0.11313629  0.47431253    -0.25700
C1426       C  0.63202541  0.10736275  0.48336461     0.36800
C1427       C  0.66122799  0.07525165  0.50896821     0.06400
F1428       F  0.70607742  0.08654449  0.48983748    -0.19500
H1429       H  0.69736993  0.10885596  0.46982023     0.16200
F1430       F  0.60878851  0.11571559  0.48171957    -0.23200
H1431       H  0.61554053  0.09006442  0.50130335     0.18000
C1432       C  0.66070459  0.09173544  0.51943179     0.26000
C1433       C  0.66511581  0.08168888  0.53075526    -0.11700
C1434       C  0.67041041  0.05515939  0.53194332    -0.25700
C1435       C  0.67036117  0.03826976  0.52147377     0.36900
C1436       C  0.66572662  0.04824500  0.51012607    -0.27400
F1437       F  0.65722299  0.11840689  0.51870196    -0.19500
H1438       H  0.66507871  0.09526399  0.53860819     0.16200
F1439       F  0.67448411  0.01198326  0.52216303    -0.23200
H1440       H  0.66568852  0.03484774  0.50220582     0.18000
C1441       C  0.48847127  0.10995047  0.42204878    -0.27200
C1442       C  0.50553363  0.09372542  0.41921635     0.06400
C1443       C  0.49194202  0.06803766  0.41073927     0.26000
C1444       C  0.46172785  0.05878822  0.40532978    -0.11700
C1445       C  0.44517518  0.07555709  0.40807809    -0.25700
C1446       C  0.45879310  0.10119153  0.41649689     0.36800
C1447       C  0.53699792  0.10353423  0.42539068     0.06400
F1448       F  0.50805160  0.05224807  0.40756411    -0.19500
H1449       H  0.45136079  0.03874140  0.39895838     0.16200
F1450       F  0.44250208  0.11671528  0.41982429    -0.23200
H1451       H  0.49784812  0.12911354  0.42878260     0.18000
C1452       C  0.56112848  0.13666743  0.42639441     0.26000
C1453       C  0.58990247  0.14591640  0.43278377    -0.11700
C1454       C  0.59543305  0.12243777  0.43827913    -0.25700
C1455       C  0.57145677  0.08921547  0.43714810     0.36900
C1456       C  0.54254167  0.07997686  0.43080480    -0.27400
F1457       F  0.55706483  0.16016919  0.42108122    -0.19500
H1458       H  0.60781445  0.17162295  0.43353687     0.16200
F1459       F  0.57617167  0.06556822  0.44193948    -0.23200
H1460       H  0.52422720  0.05435279  0.43027234     0.18000
C1461       C  0.52388289  0.00150161  0.56169187    -0.27200
C1462       C  0.50311974  0.96877224  0.55850095     0.06400
C1463       C  0.51210114  0.94556238  0.56150103     0.26000
C1464       C  0.54200381  0.95526776  0.56720144    -0.11700
C1465       C  0.56373321  0.98837081  0.56981862    -0.25700
C1466       C  0.55397324  0.01133874  0.56721948     0.36800
C1467       C  0.47298250  0.95943484  0.55153737     0.06400
F1468       F  0.49218862  0.91360990  0.55872289    -0.19500
H1469       H  0.54884886  0.93705160  0.56900355     0.16200
F1470       F  0.57385180  0.04347950  0.56970720    -0.23200
H1471       H  0.51729200  0.01969564  0.55947465     0.18000
C1472       C  0.44833267  0.96435367  0.55630670     0.26000
C1473       C  0.42028806  0.95606002  0.54954035    -0.11700
C1474       C  0.41665322  0.94335885  0.53782348    -0.25700
C1475       C  0.44150555  0.93881347  0.53298938     0.36900
C1476       C  0.46930443  0.94656127  0.53984972    -0.27400
F1477       F  0.45117694  0.97666867  0.56758224    -0.19500
H1478       H  0.40137670  0.95968334  0.55342521     0.16200
F1479       F  0.43848799  0.92609154  0.52177511    -0.23200
H1480       H  0.48819137  0.94284557  0.53599947     0.18000
C1481       C  0.33768634  0.94002932  0.48024349    -0.27200
C1482       C  0.35260216  0.97373892  0.47825442     0.06400
C1483       C  0.37090686  0.99539306  0.48757837     0.26000
C1484       C  0.37381029  0.98335913  0.49875972    -0.11700
C1485       C  0.35813882  0.94961395  0.50083712    -0.25700
C1486       C  0.34030413  0.92801154  0.49142049     0.36800
C1487       C  0.34853735  0.98593228  0.46647309     0.06400
F1488       F  0.38601749  0.02812702  0.48584665    -0.19500
H1489       H  0.38745358  0.00036093  0.50591772     0.16200
F1490       F  0.32524912  0.89523183  0.49305986    -0.23200
H1491       H  0.32341391  0.92296300  0.47318631     0.18000
C1492       C  0.35641450  0.97580480  0.45572877     0.26000
C1493       C  0.35165149  0.98660585  0.44462530    -0.11700
C1494       C  0.33873357  0.00761166  0.44394765    -0.25700
C1495       C  0.33082647  0.01772859  0.45476120     0.36900
C1496       C  0.33580968  0.00699773  0.46589563    -0.27400
F1497       F  0.36919677  0.95581380  0.45597583    -0.19500
H1498       H  0.35814905  0.97839355  0.43652824     0.16200
F1499       F  0.31811528  0.03777015  0.45463448    -0.23200
H1500       H  0.32923027  0.01473654  0.47409575     0.18000
C1501       C  0.10797772  0.26954030  0.60763726    -0.27200
C1502       C  0.11802871  0.28218030  0.59602517     0.06400
C1503       C  0.09547939  0.28327520  0.58807255     0.26000
C1504       C  0.06366486  0.27321193  0.59194898    -0.11700
C1505       C  0.05398977  0.26182170  0.60377130    -0.25700
C1506       C  0.07619573  0.25913566  0.61146342     0.36800
C1507       C  0.15230037  0.29485709  0.59241435     0.06400
F1508       F  0.10470055  0.29546607  0.57677399    -0.19500
H1509       H  0.04703012  0.27556556  0.58589581     0.16200
F1510       F  0.06721315  0.24669919  0.62274546    -0.23200
H1511       H  0.12492393  0.26799052  0.61377959     0.18000
C1512       C  0.17769597  0.32213586  0.59824237     0.26000
C1513       C  0.21005730  0.33450787  0.59458276    -0.11700
C1514       C  0.21769003  0.31982043  0.58507072    -0.25700
C1515       C  0.19204749  0.29174970  0.57951916     0.36900
C1516       C  0.15973701  0.27963422  0.58314196    -0.27400
F1517       F  0.17102795  0.33753012  0.60716824    -0.19500
H1518       H  0.22901243  0.35624058  0.59895702     0.16200
F1519       F  0.19794151  0.27618770  0.57043754    -0.23200
H1520       H  0.14040165  0.25833748  0.57867387     0.18000
C1521       C  0.81268809  0.14764127  0.58687374    -0.27200
C1522       C  0.83976600  0.14536295  0.58324501     0.06400
C1523       C  0.83580425  0.12237930  0.57442763     0.26000
C1524       C  0.80487643  0.10134897  0.56957919    -0.11700
C1525       C  0.77741172  0.10304199  0.57337895    -0.25700
C1526       C  0.78186502  0.12696470  0.58197109     0.36800
C1527       C  0.87164654  0.16611999  0.58915055     0.06400
F1528       F  0.86155286  0.11928508  0.57092599    -0.19500
H1529       H  0.80231340  0.08314204  0.56307856     0.16200
F1530       F  0.75631557  0.12958705  0.58609233    -0.23200
H1531       H  0.81539577  0.16525767  0.59367703     0.18000
C1532       C  0.89856159  0.18964757  0.58260222     0.26000
C1533       C  0.92817387  0.20999758  0.58847580    -0.11700
C1534       C  0.93141676  0.20709125  0.60095822    -0.25700
C1535       C  0.90451320  0.18287185  0.60741543     0.36900
C1536       C  0.87489518  0.16286255  0.60155916    -0.27400
F1537       F  0.89585283  0.19356474  0.57061614    -0.19500
H1538       H  0.94841170  0.22848781  0.58330917     0.16200
F1539       F  0.90700611  0.17799810  0.61933707    -0.23200
H1540       H  0.85443159  0.14456409  0.60670142     0.18000
C1541       C  0.57402469  0.14086969  0.69645467    -0.27200
C1542       C  0.56531298  0.13197423  0.70852134     0.06400
C1543       C  0.58859314  0.13259104  0.71655361     0.26000
C1544       C  0.61956496  0.14056596  0.71239938    -0.11700
C1545       C  0.62787003  0.14810712  0.70019708    -0.25700
C1546       C  0.60506837  0.14914217  0.69231944     0.36800
C1547       C  0.53118479  0.11929043  0.71239989     0.06400
F1548       F  0.58076170  0.12352743  0.72824012    -0.19500
H1549       H  0.63654753  0.13937692  0.71862372     0.16200
F1550       F  0.61266458  0.15789584  0.68059582    -0.23200
H1551       H  0.55649872  0.14085859  0.69017869     0.18000
C1552       C  0.52377440  0.13220125  0.72250027     0.26000
C1553       C  0.49172986  0.11762839  0.72672997    -0.11700
C1554       C  0.46643834  0.08978617  0.72101897    -0.25700
C1555       C  0.47378096  0.07788849  0.71054132     0.36900
C1556       C  0.50584780  0.09264919  0.70629091    -0.27400
F1557       F  0.54758071  0.15861652  0.72837016    -0.19500
H1558       H  0.48695310  0.12766727  0.73473205     0.16200
F1559       F  0.45045336  0.05108699  0.70471068    -0.23200
H1560       H  0.51116121  0.08236653  0.69848178     0.18000
C1561       C  0.67302790  0.11684764  0.64755898    -0.27200
C1562       C  0.68627798  0.09637563  0.64627763     0.06400
C1563       C  0.70164766  0.09138764  0.65624342     0.26000
C1564       C  0.70320972  0.10640494  0.66732551    -0.11700
C1565       C  0.68931284  0.12636053  0.66860976    -0.25700
C1566       C  0.67451876  0.13172190  0.65856468     0.36800
C1567       C  0.68418384  0.08120986  0.63437057     0.06400
F1568       F  0.71563810  0.07258545  0.65520542    -0.19500
H1569       H  0.71481656  0.10208752  0.67495157     0.16200
F1570       F  0.66185432  0.15175934  0.65934714    -0.23200
H1571       H  0.66122170  0.12115994  0.63999394     0.18000
C1572       C  0.67016504  0.04726063  0.63302601     0.26000
C1573       C  0.66506637  0.03338968  0.62148828    -0.11700
C1574       C  0.67369315  0.05309429  0.61111314    -0.25700
C1575       C  0.68880085  0.08723836  0.61257964     0.36900
C1576       C  0.69388204  0.10092667  0.62405843    -0.27400
F1577       F  0.65992117  0.02738232  0.64280301    -0.19500
H1578       H  0.65361267  0.00713646  0.62068162     0.16200
F1579       F  0.69848730  0.10766041  0.60295365    -0.23200
H1580       H  0.70499425  0.12715737  0.62490213     0.18000
C1581       C  0.76057425  0.89085128  0.09016137    -0.27200
C1582       C  0.74274127  0.89571981  0.09918600     0.06400
C1583       C  0.71654818  0.86830936  0.10467961     0.26000
C1584       C  0.70730531  0.83680748  0.10064955    -0.11700
C1585       C  0.72396582  0.83198862  0.09107348    -0.25700
C1586       C  0.75153739  0.85950134  0.08616565     0.36800
C1587       C  0.75034807  0.92941542  0.10210997     0.06400
F1588       F  0.69946296  0.87199235  0.11376477    -0.19500
H1589       H  0.68619245  0.81627978  0.10470241     0.16200
F1590       F  0.76880532  0.85653738  0.07698488    -0.23200
H1591       H  0.78070017  0.91153176  0.08573667     0.18000
C1592       C  0.78271347  0.95447160  0.10414537     0.26000
C1593       C  0.78975919  0.98648948  0.10616940    -0.11700
C1594       C  0.76469226  0.99401107  0.10637316    -0.25700
C1595       C  0.73235841  0.96908894  0.10433209     0.36900
C1596       C  0.72533592  0.93714631  0.10213752    -0.27400
F1597       F  0.80739041  0.94780452  0.10456351    -0.19500
H1598       H  0.81468420  0.00525025  0.10804989     0.16200
F1599       F  0.70761477  0.97569515  0.10450362    -0.23200
H1600       H  0.70033580  0.91846083  0.10034412     0.18000
C1601       C  0.84764172  0.78274449  0.07928410    -0.27200
C1602       C  0.85032918  0.76426030  0.08862447     0.06400
C1603       C  0.82221228  0.73575395  0.09245566     0.26000
C1604       C  0.79190506  0.72645529  0.08724871    -0.11700
C1605       C  0.78882452  0.74549440  0.07817643    -0.25700
C1606       C  0.81724796  0.77362712  0.07411984     0.36800
C1607       C  0.88213324  0.77539153  0.09468840     0.06400
F1608       F  0.82404550  0.71690614  0.10128024    -0.19500
H1609       H  0.77063650  0.70471873  0.09059867     0.16200
F1610       F  0.81575384  0.79262003  0.06528286    -0.23200
H1611       H  0.86901821  0.80483553  0.07621901     0.18000
C1612       C  0.91013574  0.78214509  0.08806835     0.26000
C1613       C  0.93974648  0.79201126  0.09400217    -0.11700
C1614       C  0.94202017  0.79544488  0.10662249    -0.25700
C1615       C  0.91413165  0.78947316  0.11319212     0.36900
C1616       C  0.88453405  0.77942266  0.10726435    -0.27400
F1617       F  0.90861386  0.77821528  0.07591540    -0.19500
H1618       H  0.96079631  0.79629762  0.08874532     0.16200
F1619       F  0.91561275  0.79404319  0.12531352    -0.23200
H1620       H  0.86342086  0.77504440  0.11250240     0.18000
C1621       C  0.71007566  0.65256457  0.15052298    -0.27200
C1622       C  0.68458028  0.65884018  0.14826042     0.06400
C1623       C  0.66240860  0.65399971  0.15753293     0.26000
C1624       C  0.66516878  0.64205314  0.16871322    -0.11700
C1625       C  0.68969393  0.63418699  0.17080329    -0.25700
C1626       C  0.71264365  0.64026976  0.16165741     0.36800
C1627       C  0.67958529  0.66733275  0.13590841     0.06400
F1628       F  0.63680319  0.65869352  0.15554794    -0.19500
H1629       H  0.64732061  0.63779380  0.17562525     0.16200
F1630       F  0.73618504  0.63226469  0.16313847    -0.23200
H1631       H  0.72738243  0.65611275  0.14347761     0.18000
C1632       C  0.67529570  0.69412560  0.13365503     0.26000
C1633       C  0.67041074  0.70129405  0.12186219    -0.11700
C1634       C  0.67000143  0.68206201  0.11212415    -0.25700
C1635       C  0.67394818  0.65501599  0.11446783     0.36900
C1636       C  0.67868845  0.64787319  0.12622333    -0.27400
F1637       F  0.67689137  0.71396698  0.14278197    -0.19500
H1638       H  0.66779364  0.72242318  0.12032602     0.16200
F1639       F  0.67307998  0.63523466  0.10543731    -0.23200
H1640       H  0.68144962  0.62683040  0.12778859     0.18000
C1641       C  0.76867512  0.60069256  0.94186438    -0.27200
C1642       C  0.78036135  0.62089795  0.93168989     0.06400
C1643       C  0.75967627  0.62944358  0.92559643     0.26000
C1644       C  0.72830549  0.61906580  0.92998281    -0.11700
C1645       C  0.71736862  0.60038400  0.94054140    -0.25700
C1646       C  0.73749922  0.59067605  0.94632783     0.36800
C1647       C  0.81468446  0.63439082  0.92793595     0.06400
F1648       F  0.77005256  0.64830069  0.91554844    -0.19500
H1649       H  0.71307344  0.62678738  0.92545124     0.16200
F1650       F  0.72725418  0.57220759  0.95647373    -0.23200
H1651       H  0.78423127  0.59379127  0.94663765     0.18000
C1652       C  0.83570568  0.66829148  0.92728305     0.26000
C1653       C  0.86818918  0.68100605  0.92386667    -0.11700
C1654       C  0.88028749  0.66022031  0.92090324    -0.25700
C1655       C  0.85936446  0.62624186  0.92176061     0.36900
C1656       C  0.82690182  0.61351777  0.92537399    -0.27400
F1657       F  0.82489034  0.68914501  0.93004972    -0.19500
H1658       H  0.88364333  0.70723298  0.92316551     0.16200
F1659       F  0.87022427  0.60537085  0.91910739    -0.23200
H1660       H  0.81108434  0.58732237  0.92597151     0.18000
C1661       C  0.69103899  0.69445457  0.01159819    -0.27200
C1662       C  0.67545177  0.66037590  0.01044915     0.06400
C1663       C  0.66646657  0.64105402  0.02086197     0.26000
C1664       C  0.67332537  0.65555004  0.03222144    -0.11700
C1665       C  0.68929832  0.68971385  0.03351449    -0.25700
C1666       C  0.69799162  0.70912813  0.02303079     0.36800
C1667       C  0.67022660  0.64488773  0.99845928     0.06400
F1668       F  0.65066326  0.60801567  0.02003674    -0.19500
H1669       H  0.66571377  0.63975273  0.04004127     0.16200
F1670       F  0.71342384  0.74214909  0.02377684    -0.23200
H1671       H  0.69837929  0.70970033  0.00362755     0.18000
C1672       C  0.65142080  0.64891804  0.98956274     0.26000
C1673       C  0.64691829  0.63387054  0.97828353    -0.11700
C1674       C  0.66139338  0.61494012  0.97571802    -0.25700
C1675       C  0.67967932  0.61051026  0.98474890     0.36900
C1676       C  0.68399133  0.62536045  0.99598241    -0.27400
F1677       F  0.63717972  0.66705677  0.99183576    -0.19500
H1678       H  0.63281646  0.63764258  0.97145222     0.16200
F1679       F  0.69327693  0.59165460  0.98273359    -0.23200
H1680       H  0.69842832  0.62188000  0.00275926     0.18000
C1681       C  0.19723533  0.46095394  0.05517932    -0.27200
C1682       C  0.20362031  0.44830578  0.04476356     0.06400
C1683       C  0.17709999  0.42582094  0.03767589     0.26000
C1684       C  0.14499206  0.41423267  0.04150556    -0.11700
C1685       C  0.13852894  0.42502577  0.05241409    -0.25700
C1686       C  0.16515093  0.44974574  0.05894692     0.36800
C1687       C  0.23752104  0.45621908  0.04190575     0.06400
F1688       F  0.18223751  0.41429212  0.02719123    -0.19500
H1689       H  0.12522451  0.39571411  0.03615546     0.16200
F1690       F  0.16052310  0.46183633  0.06939002    -0.23200
H1691       H  0.21712926  0.47828133  0.06079964     0.18000
C1692       C  0.26404476  0.48849158  0.04209426     0.26000
C1693       C  0.29552521  0.49499110  0.03909181    -0.11700
C1694       C  0.30102410  0.46950475  0.03584008    -0.25700
C1695       C  0.27477381  0.43721603  0.03619047     0.36900
C1696       C  0.24351804  0.43074929  0.03921878    -0.27400
F1697       F  0.25936829  0.51382704  0.04468424    -0.19500
H1698       H  0.31536043  0.52004277  0.03882965     0.16200
F1699       F  0.27933363  0.41182773  0.03352988    -0.23200
H1700       H  0.22384056  0.40561941  0.03945235     0.18000
C1701       C  0.45702080  0.54367996  0.05692162    -0.27200
C1702       C  0.48378037  0.56711566  0.05028266     0.06400
C1703       C  0.48053595  0.56905357  0.03776261     0.26000
C1704       C  0.45090237  0.54823068  0.03203460    -0.11700
C1705       C  0.42393845  0.52477180  0.03863066    -0.25700
C1706       C  0.42742622  0.52247029  0.05116441     0.36800
C1707       C  0.51513409  0.58947129  0.05635892     0.06400
F1708       F  0.50586160  0.59165146  0.03110713    -0.19500
H1709       H  0.44891193  0.55075816  0.02241711     0.16200
F1710       F  0.40262978  0.49911135  0.05779485    -0.23200
H1711       H  0.45925079  0.54150814  0.06654848     0.18000
C1712       C  0.51704882  0.61156730  0.06522317     0.26000
C1713       C  0.54726672  0.63413487  0.07026406    -0.11700
C1714       C  0.57611243  0.63483733  0.06667215    -0.25700
C1715       C  0.57383155  0.61195703  0.05798223     0.36900
C1716       C  0.54369054  0.58972199  0.05288503    -0.27400
F1717       F  0.48987860  0.61220113  0.06863913    -0.19500
H1718       H  0.54812201  0.65139391  0.07686113     0.16200
F1719       F  0.60080761  0.61171829  0.05401873    -0.23200
H1720       H  0.54266250  0.57284039  0.04607429     0.18000
C1721       C  0.23567936  0.12352809  0.88033883    -0.27200
C1722       C  0.26676914  0.14933535  0.87721126     0.06400
C1723       C  0.28796393  0.14233282  0.87068131     0.26000
C1724       C  0.27825280  0.11038618  0.86741307    -0.11700
C1725       C  0.24675782  0.08464661  0.87010588    -0.25700
C1726       C  0.22554120  0.09150882  0.87672363     0.36800
C1727       C  0.27748569  0.18335581  0.88094779     0.06400
F1728       F  0.31779014  0.16648379  0.86707673    -0.19500
H1729       H  0.29539430  0.10590838  0.86252136     0.16200
F1730       F  0.19463123  0.06769732  0.87929401    -0.23200
H1731       H  0.21910589  0.12815196  0.88554985     0.18000
C1732       C  0.25698324  0.19679946  0.87976837     0.26000
C1733       C  0.26786810  0.22897849  0.88343542    -0.11700
C1734       C  0.29962302  0.24843581  0.88792795    -0.25700
C1735       C  0.32011705  0.23507510  0.88897287     0.36900
C1736       C  0.30892899  0.20281574  0.88571614    -0.27400
F1737       F  0.22675613  0.17913197  0.87487371    -0.19500
H1738       H  0.25167589  0.23880795  0.88266174     0.16200
F1739       F  0.35056927  0.25275056  0.89370613    -0.23200
H1740       H  0.32487432  0.19290036  0.88709205     0.18000
C1741       C  0.50184571  0.46987539  0.91218542    -0.27200
C1742       C  0.50330396  0.48769172  0.92251728     0.06400
C1743       C  0.47433274  0.48467824  0.92713203     0.26000
C1744       C  0.44441462  0.46366043  0.92165259    -0.11700
C1745       C  0.44262370  0.44498759  0.91148771    -0.25700
C1746       C  0.47184735  0.44852763  0.90674575     0.36800
C1747       C  0.53501221  0.50908781  0.92851584     0.06400
F1748       F  0.47497789  0.50220258  0.93692374    -0.19500
H1749       H  0.42249704  0.46151172  0.92557986     0.16200
F1750       F  0.47154769  0.43113411  0.89697066    -0.23200
H1751       H  0.52396773  0.47194419  0.90849275     0.18000
C1752       C  0.53953617  0.50492814  0.94077971     0.26000
C1753       C  0.56951560  0.52527905  0.94636576    -0.11700
C1754       C  0.59559941  0.55009160  0.93984415    -0.25700
C1755       C  0.59100173  0.55425162  0.92755913     0.36900
C1756       C  0.56101393  0.53378210  0.92196389    -0.27400
F1757       F  0.51525067  0.48056886  0.94727242    -0.19500
H1758       H  0.57256990  0.52118387  0.95576112     0.16200
F1759       F  0.61520773  0.57855330  0.92102443    -0.23200
H1760       H  0.55790618  0.53747135  0.91252934     0.18000
C1761       C  0.34069947  0.42814067  0.95870943    -0.27200
C1762       C  0.34988286  0.41319321  0.96755561     0.06400
C1763       C  0.34997822  0.38436769  0.96467994     0.26000
C1764       C  0.34098070  0.37081847  0.95311913    -0.11700
C1765       C  0.33172139  0.38575117  0.94421102    -0.25700
C1766       C  0.33167271  0.41466794  0.94717166     0.36800
C1767       C  0.35686401  0.42660516  0.97996131     0.06400
F1768       F  0.35934835  0.36968158  0.97298971    -0.19500
H1769       H  0.34187767  0.34893798  0.95107999     0.16200
F1770       F  0.32261631  0.42988950  0.93898302    -0.23200
H1771       H  0.33989536  0.45003864  0.96082659     0.18000
C1772       C  0.38005225  0.45954525  0.98217326     0.26000
C1773       C  0.38338286  0.47272281  0.99374955    -0.11700
C1774       C  0.36339623  0.45335691  0.00322975    -0.25700
C1775       C  0.34123672  0.42007985  0.00108901     0.36900
C1776       C  0.33812967  0.40690647  0.98957217    -0.27400
F1777       F  0.39900394  0.47905346  0.97309469    -0.19500
H1778       H  0.40057991  0.49839000  0.99519252     0.16200
F1779       F  0.32207946  0.40041730  0.01009778    -0.23200
H1780       H  0.32006446  0.38152662  0.98804347     0.18000
C1781       C  0.12530539  0.62056825  0.76458641    -0.27200
C1782       C  0.09264420  0.59510248  0.76492717     0.06400
C1783       C  0.06879636  0.60158210  0.76951234     0.26000
C1784       C  0.07758650  0.63258207  0.77387537    -0.11700
C1785       C  0.11030448  0.65795139  0.77378308    -0.25700
C1786       C  0.13413106  0.65171320  0.76895264     0.36800
C1787       C  0.08328783  0.56185200  0.76052652     0.06400
F1788       F  0.03680769  0.57806076  0.76958324    -0.19500
H1789       H  0.05863669  0.63681619  0.77730845     0.16200
F1790       F  0.16608721  0.67526005  0.76887832    -0.23200
H1791       H  0.14414762  0.61614240  0.76118115     0.18000
C1792       C  0.09309712  0.55710379  0.74909986     0.26000
C1793       C  0.08137463  0.52552021  0.74462428    -0.11700
C1794       C  0.05948425  0.49795896  0.75138911    -0.25700
C1795       C  0.05114083  0.50279372  0.76309787     0.36900
C1796       C  0.06302381  0.53438095  0.76758143    -0.27400
F1797       F  0.11243035  0.58293303  0.74194726    -0.19500
H1798       H  0.08828331  0.52276731  0.73557983     0.16200
F1799       F  0.03084923  0.47711314  0.77013815    -0.23200
H1800       H  0.05579649  0.53741251  0.77653607     0.18000
C1801       C  0.84505276  0.27697176  0.73156311    -0.27200
C1802       C  0.84171245  0.25671280  0.72173908     0.06400
C1803       C  0.86999305  0.25884773  0.71672481     0.26000
C1804       C  0.90067221  0.28030837  0.72155720    -0.11700
C1805       C  0.90415231  0.30093378  0.73126024    -0.25700
C1806       C  0.87591689  0.29907597  0.73623084     0.36800
C1807       C  0.80905533  0.23485446  0.71632856     0.06400
F1808       F  0.86828034  0.24159241  0.70670289    -0.19500
H1809       H  0.92195154  0.28179891  0.71730032     0.16200
F1810       F  0.87805675  0.31869068  0.74553118    -0.23200
H1811       H  0.82369446  0.27590011  0.73556596     0.18000
C1812       C  0.79924078  0.20245804  0.71308336     0.26000
C1813       C  0.76964467  0.18319172  0.70708567    -0.11700
C1814       C  0.74885967  0.19546082  0.70446894    -0.25700
C1815       C  0.75797218  0.22734272  0.70814932     0.36900
C1816       C  0.78782565  0.24681196  0.71396735    -0.27400
F1817       F  0.81800548  0.18920811  0.71585343    -0.19500
H1818       H  0.76277616  0.15847574  0.70455965     0.16200
F1819       F  0.73866506  0.24018012  0.70568402    -0.23200
H1820       H  0.79478142  0.27165171  0.71632225     0.18000
C1821       C  0.01031354  0.28444567  0.65764150    -0.27200
C1822       C  0.99637876  0.30401996  0.65965474     0.06400
C1823       C  0.97924607  0.30876898  0.65027476     0.26000
C1824       C  0.97671940  0.29453079  0.63894678    -0.11700
C1825       C  0.99165363  0.27582640  0.63683267    -0.25700
C1826       C  0.00811207  0.27053894  0.64634352     0.36800
C1827       C  0.00045994  0.31963560  0.67155571     0.06400
F1828       F  0.96492342  0.32702392  0.65210545    -0.19500
H1829       H  0.96389253  0.29880320  0.63174214     0.16200
F1830       F  0.02207168  0.25186353  0.64469678    -0.23200
H1831       H  0.02345307  0.28043042  0.66480101     0.18000
C1832       C  0.98814535  0.30045434  0.68194657     0.26000
C1833       C  0.99414718  0.31516512  0.69328540    -0.11700
C1834       C  0.01279813  0.34935743  0.69454316    -0.25700
C1835       C  0.02490291  0.36856441  0.68405625     0.36900
C1836       C  0.01861896  0.35372193  0.67267133    -0.27400
F1837       F  0.97021149  0.26743742  0.68110811    -0.19500
H1838       H  0.98409442  0.29959885  0.70111252     0.16200
F1839       F  0.04342121  0.40153150  0.68477437    -0.23200
H1840       H  0.02864481  0.36879097  0.66472206     0.18000
C1841       C  0.01045140  0.28617950  0.81014292    -0.27200
C1842       C  0.02303508  0.31976063  0.80861772     0.06400
C1843       C  0.03753036  0.34089228  0.81846215     0.26000
C1844       C  0.03893605  0.32835118  0.82973788    -0.11700
C1845       C  0.02537082  0.29458875  0.83134504    -0.25700
C1846       C  0.01139585  0.27360822  0.82141204     0.36800
C1847       C  0.02017497  0.33211090  0.79673897     0.06400
F1848       F  0.05027877  0.37353383  0.81714608    -0.19500
H1849       H  0.04971779  0.34484458  0.83730199     0.16200
F1850       F  0.99858242  0.24092500  0.82263027    -0.23200
H1851       H  0.99925259  0.26960856  0.80262296     0.18000
C1852       C  0.03511875  0.32760919  0.78659524     0.26000
C1853       C  0.02987963  0.33645637  0.77518201    -0.11700
C1854       C  0.00951302  0.34986277  0.77363091    -0.25700
C1855       C  0.99508860  0.35502002  0.78387981     0.36900
C1856       C  0.00050713  0.34623466  0.79533790    -0.27400
F1857       F  0.05472768  0.31454030  0.78774372    -0.19500
H1858       H  0.04174892  0.33263557  0.76752142     0.16200
F1859       F  0.97489030  0.36742165  0.78282013    -0.23200
H1860       H  0.98854153  0.34950936  0.80309169     0.18000
C1861       C  0.13251268  0.33113394  0.87705586    -0.27200
C1862       C  0.13947924  0.30781811  0.88182082     0.06400
C1863       C  0.11635919  0.27449551  0.88031382     0.26000
C1864       C  0.08729831  0.26491222  0.87401614    -0.11700
C1865       C  0.08083002  0.28824865  0.86896832    -0.25700
C1866       C  0.10368000  0.32155269  0.87062671     0.36800
C1867       C  0.17139794  0.31840123  0.88783608     0.06400
F1868       F  0.12243077  0.25114319  0.88446519    -0.19500
H1869       H  0.07020257  0.23913643  0.87276854     0.16200
F1870       F  0.09795627  0.34487554  0.86617120    -0.23200
H1871       H  0.14953971  0.35692889  0.87828200     0.18000
C1872       C  0.20067352  0.34204992  0.88243819     0.26000
C1873       C  0.23065973  0.35106546  0.88781729    -0.11700
C1874       C  0.23245029  0.33652138  0.89862594    -0.25700
C1875       C  0.20318122  0.31316182  0.90415211     0.36900
C1876       C  0.17300277  0.30441003  0.89882354    -0.27400
F1877       F  0.20049684  0.35546913  0.87164913    -0.19500
H1878       H  0.25268747  0.36878533  0.88323078     0.16200
F1879       F  0.20363213  0.29885135  0.91468821    -0.23200
H1880       H  0.15081489  0.28655715  0.90327878     0.18000
C1881       C  0.23687066  0.46088958  0.75373634    -0.27200
C1882       C  0.20779444  0.43130452  0.75569709     0.06400
C1883       C  0.20815734  0.40933360  0.76417805     0.26000
C1884       C  0.23697819  0.41671043  0.77031297    -0.11700
C1885       C  0.26607255  0.44659535  0.76849386    -0.25700
C1886       C  0.26530768  0.46886755  0.76019246     0.36800
C1887       C  0.17726101  0.42393149  0.74907401     0.06400
F1888       F  0.18043713  0.38104766  0.76684320    -0.19500
H1889       H  0.23634558  0.39879336  0.77651119     0.16200
F1890       F  0.29153289  0.49906882  0.75855437    -0.23200
H1891       H  0.23765628  0.47823165  0.74720926     0.18000
C1892       C  0.16840186  0.44800943  0.74746307     0.26000
C1893       C  0.13923245  0.44050109  0.74161923    -0.11700
C1894       C  0.11775276  0.40873131  0.73748458    -0.25700
C1895       C  0.12683787  0.38482273  0.73883204     0.36900
C1896       C  0.15640168  0.39251159  0.74441435    -0.27400
F1897       F  0.18696239  0.47842314  0.75210454    -0.19500
H1898       H  0.13261855  0.45923646  0.74091280     0.16200
F1899       F  0.10703567  0.35389803  0.73483564    -0.23200
H1900       H  0.16284299  0.37367903  0.74517282     0.18000
C1901       C  0.32758528  0.42440504  0.85201992    -0.27200
C1902       C  0.33503092  0.41135775  0.84196580     0.06400
C1903       C  0.34796289  0.39071099  0.84387339     0.26000
C1904       C  0.35322840  0.38336897  0.85562663    -0.11700
C1905       C  0.34595857  0.39661441  0.86572303    -0.25700
C1906       C  0.33281390  0.41715154  0.86373875     0.36800
C1907       C  0.33064177  0.42088963  0.82961783     0.06400
F1908       F  0.35655617  0.37851582  0.83439100    -0.19500
H1909       H  0.36334807  0.36753807  0.85681074     0.16200
F1910       F  0.32445256  0.42996661  0.87309114    -0.23200
H1911       H  0.31748594  0.44024817  0.85078258     0.18000
C1912       C  0.31290103  0.39750150  0.82064552     0.26000
C1913       C  0.30946083  0.40738803  0.80906124    -0.11700
C1914       C  0.32388948  0.44066881  0.80622458    -0.25700
C1915       C  0.34099389  0.46393022  0.81527453     0.36900
C1916       C  0.34415501  0.45409154  0.82682590    -0.27400
F1917       F  0.29871814  0.36516379  0.82309828    -0.19500
H1918       H  0.29639522  0.38911160  0.80219664     0.16200
F1919       F  0.35500197  0.49630116  0.81288349    -0.23200
H1920       H  0.35781742  0.47254790  0.83357052     0.18000
C1921       C  0.57568504  0.54080364  0.70450952    -0.27200
C1922       C  0.56794932  0.51421291  0.71210511     0.06400
C1923       C  0.58169373  0.52004520  0.72368889     0.26000
C1924       C  0.60099158  0.55194424  0.72787262    -0.11700
C1925       C  0.60688571  0.57877260  0.72063140    -0.25700
C1926       C  0.59489149  0.57284391  0.70870559     0.36800
C1927       C  0.54391763  0.48066889  0.70820036     0.06400
F1928       F  0.57576097  0.49483589  0.73108040    -0.19500
H1929       H  0.61008853  0.55548411  0.73703313     0.16200
F1930       F  0.60044372  0.59779865  0.70124891    -0.23200
H1931       H  0.56553805  0.53673467  0.69549716     0.18000
C1932       C  0.51579451  0.46134871  0.71513049     0.26000
C1933       C  0.49258887  0.43010322  0.71123960    -0.11700
C1934       C  0.49680455  0.41769237  0.70032868    -0.25700
C1935       C  0.52504885  0.43692274  0.69342605     0.36900
C1936       C  0.54831384  0.46819717  0.69733296    -0.27400
F1937       F  0.51014667  0.47318509  0.72543710    -0.19500
H1938       H  0.47083608  0.41587926  0.71660033     0.16200
F1939       F  0.53034304  0.42528543  0.68299683    -0.23200
H1940       H  0.56985323  0.48268943  0.69189984     0.18000
C1941       C  0.49234486  0.60017322  0.75137462    -0.27200
C1942       C  0.48636497  0.58117444  0.76178466     0.06400
C1943       C  0.51308189  0.58538347  0.76872918     0.26000
C1944       C  0.54501442  0.60658259  0.76488265    -0.11700
C1945       C  0.55107240  0.62415012  0.75405792    -0.25700
C1946       C  0.52425835  0.62160091  0.74756710     0.36800
C1947       C  0.45248585  0.55580258  0.76497408     0.06400
F1948       F  0.50834334  0.56855912  0.77914737    -0.19500
H1949       H  0.56498398  0.60819331  0.77017139     0.16200
F1950       F  0.52864599  0.63878691  0.73726960    -0.23200
H1951       H  0.47225152  0.59743608  0.74586464     0.18000
C1952       C  0.42679608  0.56263744  0.76498898     0.26000
C1953       C  0.39518224  0.53840362  0.76815793    -0.11700
C1954       C  0.38872435  0.50715370  0.77148516    -0.25700
C1955       C  0.41413460  0.50005834  0.77118122     0.36900
C1956       C  0.44560114  0.52409370  0.76786472    -0.27400
F1957       F  0.43247126  0.59305577  0.76245495    -0.19500
H1958       H  0.37596009  0.54441516  0.76850515     0.16200
F1959       F  0.40850679  0.46989326  0.77415376    -0.23200
H1960       H  0.46470194  0.51791461  0.76758494     0.18000
C1961       C  0.85081508  0.79622107  0.88555016    -0.27200
C1962       C  0.87240214  0.79579658  0.87696458     0.06400
C1963       C  0.87160257  0.80551621  0.86510777     0.26000
C1964       C  0.84874050  0.81435498  0.86178676    -0.11700
C1965       C  0.82561685  0.81282803  0.87013385    -0.25700
C1966       C  0.82741050  0.80450183  0.88217353     0.36800
C1967       C  0.89423408  0.78320734  0.88020728     0.06400
F1968       F  0.89253303  0.80581115  0.85668506    -0.19500
H1969       H  0.84836436  0.82134472  0.85251907     0.16200
F1970       F  0.80530304  0.80222348  0.89046296    -0.23200
H1971       H  0.85109905  0.78862711  0.89473508     0.18000
C1972       C  0.91745492  0.79791702  0.88938954     0.26000
C1973       C  0.93649593  0.78448334  0.89288093    -0.11700
C1974       C  0.93235385  0.75577928  0.88741868    -0.25700
C1975       C  0.90978753  0.74176448  0.87789397     0.36900
C1976       C  0.89105377  0.75553423  0.87431597    -0.27400
F1977       F  0.92142105  0.82504671  0.89507302    -0.19500
H1978       H  0.95354730  0.79589229  0.90024521     0.16200
F1979       F  0.90508024  0.71430525  0.87225382    -0.23200
H1980       H  0.87322101  0.74395185  0.86718836     0.18000
C1981       C  0.70164671  0.76014161  0.82352550    -0.27200
C1982       C  0.72426835  0.76410332  0.81455780     0.06400
C1983       C  0.75774887  0.78175763  0.81720612     0.26000
C1984       C  0.76838700  0.79547640  0.82858466    -0.11700
C1985       C  0.74592457  0.79165950  0.83761825    -0.25700
C1986       C  0.71234153  0.77387173  0.83499178     0.36800
C1987       C  0.71332416  0.75075896  0.80231433     0.06400
F1988       F  0.78017607  0.78525317  0.80882729    -0.19500
H1989       H  0.79438412  0.80916946  0.83035150     0.16200
F1990       F  0.68992544  0.76899968  0.84356841    -0.23200
H1991       H  0.67573426  0.74662308  0.82160246     0.18000
C1992       C  0.69230759  0.71724445  0.80038031     0.26000
C1993       C  0.68439270  0.70494789  0.78861747    -0.11700
C1994       C  0.69713758  0.72590359  0.77860506    -0.25700
C1995       C  0.71741279  0.75969298  0.78066834     0.36900
C1996       C  0.72539065  0.77178529  0.79239127    -0.27400
F1997       F  0.68046774  0.69630035  0.80983517    -0.19500
H1998       H  0.66859846  0.67893333  0.78736057     0.16200
F1999       F  0.73009356  0.78122396  0.77140968    -0.23200
H2000       H  0.74137677  0.79775208  0.79374488     0.18000
C2001       C  0.49707201  0.94833812  0.75881083    -0.27200
C2002       C  0.47310997  0.94562694  0.76693087     0.06400
C2003       C  0.47080632  0.93196566  0.77833562     0.26000
C2004       C  0.49279933  0.92198765  0.78168706    -0.11700
C2005       C  0.51782983  0.92598149  0.77380815    -0.25700
C2006       C  0.51949460  0.93882515  0.76222642     0.36800
C2007       C  0.45153962  0.95840002  0.76360797     0.06400
F2008       F  0.44748613  0.92859969  0.78625856    -0.19500
H2009       H  0.49073200  0.91174741  0.79058946     0.16200
F2010       F  0.54381420  0.94396756  0.75449278    -0.23200
H2011       H  0.49915061  0.95900611  0.74999004     0.18000
C2012       C  0.45381324  0.98553552  0.76962697     0.26000
C2013       C  0.43551298  0.99943103  0.76566098    -0.11700
C2014       C  0.41462519  0.98644589  0.75563834    -0.25700
C2015       C  0.41108800  0.95799187  0.75009643     0.36900
C2016       C  0.42967788  0.94441228  0.75400248    -0.27400
F2017       F  0.47506707  0.99964862  0.77891035    -0.19500
H2018       H  0.43886870  0.02125267  0.77010816     0.16200
F2019       F  0.39045940  0.94374483  0.74065648    -0.23200
H2020       H  0.42744664  0.92323141  0.74938868     0.18000
C2021       C  0.64634458  0.82411410  0.74487384    -0.27200
C2022       C  0.61601923  0.81129134  0.75074166     0.06400
C2023       C  0.59511957  0.77719483  0.75093308     0.26000
C2024       C  0.60464986  0.75662756  0.74556061    -0.11700
C2025       C  0.63547379  0.76940489  0.74016841    -0.25700
C2026       C  0.65621792  0.80341397  0.73977517     0.36800
C2027       C  0.60660772  0.83331554  0.75689319     0.06400
F2028       F  0.56621075  0.76353960  0.75689129    -0.19500
H2029       H  0.58853243  0.73047197  0.74619565     0.16200
F2030       F  0.68601737  0.81660505  0.73449666    -0.23200
H2031       H  0.66261401  0.85023802  0.74434439     0.18000
C2032       C  0.62877013  0.85894942  0.76436198     0.26000
C2033       C  0.61931209  0.87891431  0.77031347    -0.11700
C2034       C  0.58722123  0.87323259  0.76934005    -0.25700
C2035       C  0.56498479  0.84724094  0.76194021     0.36900
C2036       C  0.57485533  0.82811053  0.75564407    -0.27400
F2037       F  0.65927868  0.86406414  0.76628337    -0.19500
H2038       H  0.63729141  0.89879290  0.77575944     0.16200
F2039       F  0.53322708  0.83913910  0.76112769    -0.23200
H2040       H  0.55732807  0.80876184  0.74988430     0.18000
C2041       C  0.77366023  0.94906146  0.58618769    -0.27200
C2042       C  0.76411814  0.93217533  0.59716313     0.06400
C2043       C  0.73856078  0.93187830  0.60371785     0.26000
C2044       C  0.72186753  0.94682723  0.59905247    -0.11700
C2045       C  0.73034778  0.96251801  0.58777875    -0.25700
C2046       C  0.75718108  0.96421572  0.58153549     0.36800
C2047       C  0.77942614  0.91327132  0.60140447     0.06400
F2048       F  0.72852881  0.91558887  0.61433831    -0.19500
H2049       H  0.70154359  0.94513431  0.60411839     0.16200
F2050       F  0.76709857  0.97967981  0.57075527    -0.23200
H2051       H  0.79362420  0.95002478  0.58109197     0.18000
C2052       C  0.78006851  0.88953581  0.59395414     0.26000
C2053       C  0.79123286  0.86930950  0.59845836    -0.11700
C2054       C  0.80201213  0.87240243  0.61044450    -0.25700
C2055       C  0.80304029  0.89737715  0.61767104     0.36900
C2056       C  0.79172140  0.91746048  0.61318574    -0.27400
F2057       F  0.76814301  0.88461969  0.58254047    -0.19500
H2058       H  0.79005535  0.85022910  0.59273166     0.16200
F2059       F  0.81473608  0.90219625  0.62911936    -0.23200
H2060       H  0.79206637  0.93602242  0.61898797     0.18000
C2061       C  0.77331901  0.80131780  0.66429022    -0.27200
C2062       C  0.75649840  0.76735604  0.66577874     0.06400
C2063       C  0.75619876  0.74753206  0.65629751     0.26000
C2064       C  0.77201135  0.76161810  0.64539926    -0.11700
C2065       C  0.78810004  0.79564358  0.64377091    -0.25700
C2066       C  0.78894231  0.81539675  0.65342425     0.36800
C2067       C  0.73940727  0.75318434  0.67728891     0.06400
F2068       F  0.74087153  0.71465311  0.65762835    -0.19500
H2069       H  0.77099872  0.74588160  0.63812509     0.16200
F2070       F  0.80511832  0.84839310  0.65240258    -0.23200
H2071       H  0.77398916  0.81696562  0.67154402     0.18000
C2072       C  0.75696562  0.76137675  0.68813568     0.26000
C2073       C  0.74064083  0.75040726  0.69910984    -0.11700
C2074       C  0.70632689  0.73117497  0.69957398    -0.25700
C2075       C  0.68878209  0.72235724  0.68862303     0.36900
C2076       C  0.70529911  0.73324527  0.67759343    -0.27400
F2077       F  0.79000584  0.78010740  0.68810713    -0.19500
H2078       H  0.75507942  0.75735345  0.70729158     0.16200
F2079       F  0.65574596  0.70384363  0.68853315    -0.23200
H2080       H  0.69139058  0.72688646  0.66928819     0.18000
C2081       C  0.93040153  0.53399014  0.71169065    -0.27200
C2082       C  0.91644949  0.50273673  0.70653816     0.06400
C2083       C  0.88985649  0.49224552  0.69862433     0.26000
C2084       C  0.87864391  0.51347846  0.69543061    -0.11700
C2085       C  0.89329413  0.54503539  0.70032042    -0.25700
C2086       C  0.91886131  0.55498602  0.70864780     0.36800
C2087       C  0.93089222  0.48202435  0.70906256     0.06400
F2088       F  0.87592843  0.46217846  0.69351437    -0.19500
H2089       H  0.85917515  0.50570154  0.68887338     0.16200
F2090       F  0.93382528  0.58564053  0.71329230    -0.23200
H2091       H  0.95076956  0.54236275  0.71787337     0.18000
C2092       C  0.96390264  0.49342705  0.70644486     0.26000
C2093       C  0.97832932  0.47509665  0.70971376    -0.11700
C2094       C  0.96028340  0.44540684  0.71587099    -0.25700
C2095       C  0.92680307  0.43330406  0.71800837     0.36900
C2096       C  0.91224001  0.45142652  0.71453100    -0.27400
F2097       F  0.98238855  0.52271986  0.70097861    -0.19500
H2098       H  0.00415490  0.48510695  0.70806645     0.16200
F2099       F  0.90840233  0.40444501  0.72377042    -0.23200
H2100       H  0.88671930  0.44221048  0.71655079     0.18000
C2101       C  0.76873501  0.63189447  0.73506394    -0.27200
C2102       C  0.79113477  0.65166383  0.72622204     0.06400
C2103       C  0.79403789  0.68192045  0.72348052     0.26000
C2104       C  0.77370973  0.69143944  0.72904860    -0.11700
C2105       C  0.74971095  0.67078841  0.73734145    -0.25700
C2106       C  0.74806382  0.64121409  0.74056298     0.36800
C2107       C  0.80956202  0.63966382  0.71919489     0.06400
F2108       F  0.81594761  0.70187468  0.71514139    -0.19500
H2109       H  0.77564779  0.71429548  0.72634217     0.16200
F2110       F  0.72576293  0.62073030  0.74868731    -0.23200
H2111       H  0.76620293  0.60849400  0.73730058     0.18000
C2112       C  0.83001951  0.63025071  0.72486510     0.26000
C2113       C  0.84755247  0.61948104  0.71797332    -0.11700
C2114       C  0.84438823  0.61708470  0.70531750    -0.25700
C2115       C  0.82292591  0.62558853  0.69974032     0.36900
C2116       C  0.80612042  0.63710324  0.70661779    -0.27400
F2117       F  0.83358792  0.63215511  0.73703394    -0.19500
H2118       H  0.86395017  0.61341010  0.72256939     0.16200
F2119       F  0.81716253  0.62175869  0.68769245    -0.23200
H2120       H  0.78978171  0.64346546  0.70212226     0.18000
C2121       C  0.90283047  0.20627635  0.86895989    -0.27200
C2122       C  0.89527269  0.17483565  0.87258848     0.06400
C2123       C  0.92009167  0.16670011  0.87225694     0.26000
C2124       C  0.95164673  0.18968052  0.86841849    -0.11700
C2125       C  0.95880524  0.22081599  0.86460526    -0.25700
C2126       C  0.93409236  0.22893972  0.86494915     0.36800
C2127       C  0.86142825  0.15121071  0.87663367     0.06400
F2128       F  0.91361819  0.13622040  0.87515350    -0.19500
H2129       H  0.97025016  0.18282887  0.86804583     0.16200
F2130       F  0.94028282  0.25899324  0.86149890    -0.23200
H2131       H  0.88443550  0.21341503  0.86927506     0.18000
C2132       C  0.85543259  0.13346667  0.88741959     0.26000
C2133       C  0.82351035  0.11430566  0.89171650    -0.11700
C2134       C  0.79681138  0.11270675  0.88549828    -0.25700
C2135       C  0.80278524  0.12949138  0.87445375     0.36900
C2136       C  0.83465928  0.14831088  0.87010190    -0.27400
F2137       F  0.88046406  0.13632297  0.89427241    -0.19500
H2138       H  0.81992742  0.10188975  0.90025521     0.16200
F2139       F  0.77814539  0.12911072  0.86808111    -0.23200
H2140       H  0.83852790  0.16147228  0.86171911     0.18000
C2141       C  0.81991564  0.28445953  0.92453626    -0.27200
C2142       C  0.79759549  0.26151697  0.93272817     0.06400
C2143       C  0.79750516  0.27087269  0.94473102     0.26000
C2144       C  0.82039799  0.30219094  0.94858020    -0.11700
C2145       C  0.84395595  0.32463864  0.94057010    -0.25700
C2146       C  0.84296782  0.31579589  0.92839268     0.36800
C2147       C  0.77673237  0.22721809  0.92894461     0.06400
F2148       F  0.77572163  0.24948558  0.95278967    -0.19500
H2149       H  0.82029789  0.30865699  0.95794207     0.16200
F2150       F  0.86559451  0.33651240  0.92040549    -0.23200
H2151       H  0.82061737  0.27756277  0.91527730     0.18000
C2152       C  0.75801955  0.21936468  0.91837251     0.26000
C2153       C  0.74158229  0.18730793  0.91415822    -0.11700
C2154       C  0.74365271  0.16247243  0.92034907    -0.25700
C2155       C  0.76112937  0.17016498  0.93128086     0.36900
C2156       C  0.77753555  0.20228248  0.93548344    -0.27400
F2157       F  0.75610942  0.24278992  0.91200298    -0.19500
H2158       H  0.72803426  0.18220168  0.90580405     0.16200
F2159       F  0.76373439  0.14714462  0.93765142    -0.23200
H2160       H  0.79209438  0.20793255  0.94360569     0.18000
C2161       C  0.69356997  0.91159289  0.89734843    -0.27200
C2162       C  0.72394180  0.92275600  0.89174219     0.06400
C2163       C  0.74651412  0.95635226  0.89154223     0.26000
C2164       C  0.73859132  0.97844635  0.89660839    -0.11700
C2165       C  0.70772373  0.96762058  0.90174804    -0.25700
C2166       C  0.68530399  0.93385020  0.90221562     0.36800
C2167       C  0.73167288  0.89985260  0.88547876     0.06400
F2168       F  0.77610752  0.96783222  0.88624260    -0.19500
H2169       H  0.75620581  0.00428353  0.89602752     0.16200
F2170       F  0.65545739  0.92242560  0.90729060    -0.23200
H2171       H  0.67589565  0.88573559  0.89758750     0.18000
C2172       C  0.73509628  0.87615625  0.89185250     0.26000
C2173       C  0.74477033  0.85638743  0.88582165    -0.11700
C2174       C  0.75080865  0.85968153  0.87332665    -0.25700
C2175       C  0.74682499  0.88316041  0.86696154     0.36900
C2176       C  0.73742591  0.90299975  0.87301053    -0.27400
F2177       F  0.73012620  0.87288729  0.90394599    -0.19500
H2178       H  0.74753441  0.83844018  0.89091518     0.16200
F2179       F  0.75326034  0.88789704  0.85497348    -0.23200
H2180       H  0.73503218  0.92125828  0.86797197     0.18000
C2181       C  0.65443801  0.01456003  0.84271116    -0.27200
C2182       C  0.62804368  0.98265483  0.84136135     0.06400
C2183       C  0.61074519  0.96535218  0.85166665     0.26000
C2184       C  0.61970649  0.97986738  0.86303946    -0.11700
C2185       C  0.64578218  0.01202901  0.86437829    -0.25700
C2186       C  0.66307176  0.02930370  0.85404804     0.36800
C2187       C  0.61795066  0.96824127  0.82915398     0.06400
F2188       F  0.58448583  0.93483705  0.85073317    -0.19500
H2189       H  0.60581154  0.96598778  0.87079968     0.16200
F2190       F  0.68856815  0.06029410  0.85485284    -0.23200
H2191       H  0.66847602  0.02819027  0.83493615     0.18000
C2192       C  0.61473260  0.98637704  0.81978755     0.26000
C2193       C  0.60426039  0.97254563  0.80842053    -0.11700
C2194       C  0.59579288  0.94004660  0.80617064    -0.25700
C2195       C  0.59946901  0.92195683  0.81546126     0.36900
C2196       C  0.61072901  0.93611220  0.82682375    -0.27400
F2197       F  0.62024036  0.01701567  0.82173896    -0.19500
H2198       H  0.60191952  0.98711283  0.80140075     0.16200
F2199       F  0.59074117  0.89024296  0.81377128    -0.23200
H2200       H  0.61336948  0.92179037  0.83386234     0.18000
C2201       C  0.46018179  0.24786492  0.93275792    -0.27200
C2202       C  0.42894975  0.24115634  0.93640054     0.06400
C2203       C  0.41069961  0.21438649  0.94406302     0.26000
C2204       C  0.42261813  0.19403677  0.94743751    -0.11700
C2205       C  0.45373296  0.20046086  0.94379895    -0.25700
C2206       C  0.47270498  0.22805670  0.93654227     0.36800
C2207       C  0.41447139  0.26059019  0.93172825     0.06400
F2208       F  0.38124322  0.20784972  0.94841111    -0.19500
H2209       H  0.40707461  0.17289992  0.95288706     0.16200
F2210       F  0.50347991  0.23628977  0.93325814    -0.23200
H2211       H  0.47476150  0.26813165  0.92679992     0.18000
C2212       C  0.43266747  0.29489904  0.93081913     0.26000
C2213       C  0.41825578  0.31216726  0.92613253    -0.11700
C2214       C  0.38530520  0.29567745  0.92261996    -0.25700
C2215       C  0.36708439  0.26153264  0.92370713     0.36900
C2216       C  0.38170243  0.24431045  0.92797272    -0.27400
F2217       F  0.46412291  0.31181302  0.93462100    -0.19500
H2218       H  0.43276156  0.33845917  0.92533294     0.16200
F2219       F  0.33543952  0.24448870  0.92009718    -0.23200
H2220       H  0.36732130  0.21793461  0.92812536     0.18000
C2221       C  0.58727147  0.11861538  0.90732242    -0.27200
C2222       C  0.56245910  0.09913927  0.91553532     0.06400
C2223       C  0.55681928  0.06760286  0.91806708     0.26000
C2224       C  0.57649955  0.05657534  0.91293249    -0.11700
C2225       C  0.60253479  0.07670694  0.90524295    -0.25700
C2226       C  0.60720633  0.10772942  0.90226306     0.36800
C2227       C  0.54366859  0.11223413  0.92188388     0.06400
F2228       F  0.53355582  0.04804202  0.92609172    -0.19500
H2229       H  0.57222349  0.03269214  0.91547920     0.16200
F2230       F  0.63158462  0.12806666  0.89474061    -0.23200
H2231       H  0.59166491  0.14266086  0.90497192     0.18000
C2232       C  0.55970181  0.14354785  0.92719935     0.26000
C2233       C  0.54208410  0.15457066  0.93391689    -0.11700
C2234       C  0.50839298  0.13450355  0.93561046    -0.25700
C2235       C  0.49220917  0.10361845  0.93015389     0.36900
C2236       C  0.50963535  0.09278574  0.92324444    -0.27400
F2237       F  0.59260577  0.16285534  0.92645546    -0.19500
H2238       H  0.55492920  0.17834115  0.93818444     0.16200
F2239       F  0.45958149  0.08380643  0.93164807    -0.23200
H2240       H  0.49652861  0.06890347  0.91908575     0.18000
C2241       C  0.57021875  0.83986601  0.03882719    -0.27200
C2242       C  0.60253306  0.85063274  0.04237339     0.06400
C2243       C  0.62488905  0.88436366  0.04308086     0.26000
C2244       C  0.61517406  0.90672975  0.03998042    -0.11700
C2245       C  0.58303725  0.89584288  0.03632866    -0.25700
C2246       C  0.56046070  0.86231593  0.03586457     0.36800
C2247       C  0.61275397  0.82673193  0.04546017     0.06400
F2248       F  0.65601009  0.89570134  0.04686269    -0.19500
H2249       H  0.63282212  0.93260155  0.04026507     0.16200
F2250       F  0.52941820  0.85136520  0.03208162    -0.23200
H2251       H  0.55271197  0.81403828  0.03811022     0.18000
C2252       C  0.59458211  0.80143083  0.05365749     0.26000
C2253       C  0.60605560  0.78095233  0.05741760    -0.11700
C2254       C  0.63605130  0.78545407  0.05320642    -0.25700
C2255       C  0.65325926  0.80962338  0.04442111     0.36900
C2256       C  0.64156546  0.82993560  0.04059656    -0.27400
F2257       F  0.56682425  0.79782055  0.05866098    -0.19500
H2258       H  0.59216436  0.76263367  0.06415720     0.16200
F2259       F  0.68219285  0.81490663  0.03996384    -0.23200
H2260       H  0.65554126  0.84884545  0.03405264     0.18000
C2261       C  0.60514217  0.98466268  0.95714379    -0.27200
C2262       C  0.62512318  0.00043630  0.96711631     0.06400
C2263       C  0.65784486  0.02462068  0.96516927     0.26000
C2264       C  0.67026171  0.03240375  0.95342531    -0.11700
C2265       C  0.65036317  0.01615636  0.94342985    -0.25700
C2266       C  0.61746247  0.99222653  0.94545277     0.36800
C2267       C  0.61204522  0.98939700  0.97942371     0.06400
F2268       F  0.67820139  0.03971539  0.97460298    -0.19500
H2269       H  0.69558635  0.05094997  0.95217253     0.16200
F2270       F  0.59716790  0.97540461  0.93619123    -0.23200
H2271       H  0.57986672  0.96597789  0.95842844     0.18000
C2272       C  0.61557396  0.01150971  0.98859057     0.26000
C2273       C  0.60353591  0.00012116  0.00018358    -0.11700
C2274       C  0.58778332  0.96661364  0.00276907    -0.25700
C2275       C  0.58325583  0.94451474  0.99347652     0.36900
C2276       C  0.59543545  0.95586718  0.98197649    -0.27400
F2277       F  0.63019938  0.04396982  0.98631444    -0.19500
H2278       H  0.60707734  0.01750191  0.00720343     0.16200
F2279       F  0.56684292  0.91184426  0.99549363    -0.23200
H2280       H  0.59222224  0.93835302  0.97505518     0.18000
C2281       C  0.92228859  0.19178081  0.38695049    -0.27200
C2282       C  0.89801179  0.18272818  0.37819652     0.06400
C2283       C  0.89241798  0.20653376  0.37303388     0.26000
C2284       C  0.90998410  0.23886628  0.37704382    -0.11700
C2285       C  0.93321847  0.24773569  0.38628042    -0.25700
C2286       C  0.94001067  0.22404090  0.39090958     0.36800
C2287       C  0.87694067  0.14809312  0.37509077     0.06400
F2288       F  0.86862160  0.19806163  0.36464435    -0.19500
H2289       H  0.90413969  0.25650708  0.37339919     0.16200
F2290       F  0.96315015  0.23180813  0.39952321    -0.23200
H2291       H  0.92696956  0.17364691  0.39091241     0.18000
C2292       C  0.87817247  0.13661753  0.36357259     0.26000
C2293       C  0.85550747  0.10463047  0.36028967    -0.11700
C2294       C  0.83114920  0.08376371  0.36842044    -0.25700
C2295       C  0.83101271  0.09488593  0.38017599     0.36900
C2296       C  0.85391111  0.12684794  0.38347463    -0.27400
F2297       F  0.90078146  0.15662438  0.35543856    -0.19500
H2298       H  0.85627318  0.09642528  0.35123794     0.16200
F2299       F  0.80742001  0.07572278  0.38817195    -0.23200
H2300       H  0.85273948  0.13554476  0.39239627     0.18000
C2301       C  0.82190831  0.27807095  0.41955800    -0.27200
C2302       C  0.81514235  0.25759088  0.42955917     0.06400
C2303       C  0.84109406  0.25761845  0.43568461     0.26000
C2304       C  0.87314246  0.27687206  0.43158048    -0.11700
C2305       C  0.88000577  0.29621120  0.42117466    -0.25700
C2306       C  0.85394832  0.29711229  0.41533352     0.36800
C2307       C  0.78098151  0.23459109  0.43313451     0.06400
F2308       F  0.83531176  0.23846979  0.44552887    -0.19500
H2309       H  0.89243872  0.27552720  0.43629773     0.16200
F2310       F  0.85911147  0.31551552  0.40531547    -0.23200
H2311       H  0.80216951  0.27832330  0.41472584     0.18000
C2312       C  0.75989004  0.24573745  0.43685484     0.26000
C2313       C  0.72822816  0.22345093  0.44080876    -0.11700
C2314       C  0.71734385  0.18991937  0.44104856    -0.25700
C2315       C  0.73803266  0.17876824  0.43695095     0.36900
C2316       C  0.76957106  0.20094368  0.43304068    -0.27400
F2317       F  0.77038721  0.27815122  0.43714565    -0.19500
H2318       H  0.71255650  0.23237049  0.44402615     0.16200
F2319       F  0.72775489  0.14638555  0.43688189    -0.23200
H2320       H  0.78531471  0.19189086  0.43003510     0.18000
C2321       C  0.10484440  0.61927133  0.25960297    -0.27200
C2322       C  0.08553692  0.58974713  0.26565119     0.06400
C2323       C  0.05251747  0.57910973  0.26780369     0.26000
C2324       C  0.03868108  0.59707038  0.26344157    -0.11700
C2325       C  0.05744491  0.62579502  0.25674000    -0.25700
C2326       C  0.09101514  0.63715873  0.25511658     0.36800
C2327       C  0.09960117  0.56943284  0.26922507     0.06400
F2328       F  0.03354110  0.55101995  0.27393657    -0.19500
H2329       H  0.01288013  0.58767090  0.26490071     0.16200
F2330       F  0.11036019  0.66496973  0.24889434    -0.23200
H2331       H  0.13043585  0.62785299  0.25797339     0.18000
C2332       C  0.08866841  0.53886648  0.26378786     0.26000
C2333       C  0.10162742  0.51941386  0.26734779    -0.11700
C2334       C  0.12520069  0.52997586  0.27649672    -0.25700
C2335       C  0.13637464  0.56068108  0.28185080     0.36900
C2336       C  0.12392616  0.58045430  0.27810678    -0.27400
F2337       F  0.06530399  0.52780468  0.25510755    -0.19500
H2338       H  0.09240886  0.49556975  0.26329313     0.16200
F2339       F  0.15883415  0.57117204  0.29084620    -0.23200
H2340       H  0.13258027  0.60397991  0.28235461     0.18000
C2341       C  0.03485200  0.39534212  0.34415683    -0.27200
C2342       C  0.06850616  0.41803888  0.34379498     0.06400
C2343       C  0.08550075  0.42996774  0.35469714     0.26000
C2344       C  0.06907804  0.42007021  0.36566905    -0.11700
C2345       C  0.03525711  0.39787336  0.36613556    -0.25700
C2346       C  0.01829308  0.38524357  0.35520960     0.36800
C2347       C  0.08556804  0.43085422  0.33212485     0.06400
F2348       F  0.11817684  0.45113344  0.35476439    -0.19500
H2349       H  0.08310538  0.43006827  0.37385360     0.16200
F2350       F  0.98585867  0.36318550  0.35515859    -0.23200
H2351       H  0.02121886  0.38597366  0.33585575     0.18000
C2352       C  0.08289834  0.40994291  0.32262030     0.26000
C2353       C  0.09848287  0.42289362  0.31158196    -0.11700
C2354       C  0.11680434  0.45682384  0.30984561    -0.25700
C2355       C  0.12027156  0.47761582  0.31949899     0.36900
C2356       C  0.10465166  0.46471964  0.33045366    -0.27400
F2357       F  0.06535997  0.37707723  0.32401623    -0.19500
H2358       H  0.09541423  0.40643248  0.30426800     0.16200
F2359       F  0.13865268  0.51051461  0.31832007    -0.23200
H2360       H  0.10698986  0.48134259  0.33760325     0.18000
C2361       C  0.22480676  0.17186776  0.37915547    -0.27200
C2362       C  0.25737726  0.17925009  0.37848970     0.06400
C2363       C  0.28124529  0.20975064  0.37405884     0.26000
C2364       C  0.27244782  0.23211160  0.37000104    -0.11700
C2365       C  0.23969766  0.22442504  0.37024699    -0.25700
C2366       C  0.21591609  0.19420090  0.37501867     0.36800
C2367       C  0.26657521  0.15515550  0.38231708     0.06400
F2368       F  0.31309792  0.21791829  0.37370808    -0.19500
H2369       H  0.29122238  0.25539177  0.36651648     0.16200
F2370       F  0.18393854  0.18558058  0.37511398    -0.23200
H2371       H  0.20615588  0.14841776  0.38255820     0.18000
C2372       C  0.26195105  0.14419787  0.39427543     0.26000
C2373       C  0.27370038  0.12396118  0.39809003    -0.11700
C2374       C  0.29037278  0.11433828  0.39006357    -0.25700
C2375       C  0.29338057  0.12398746  0.37790045     0.36900
C2376       C  0.28165897  0.14433654  0.37411341    -0.27400
F2377       F  0.24781675  0.15462176  0.40243077    -0.19500
H2378       H  0.27102502  0.11710036  0.40751314     0.16200
F2379       F  0.30829072  0.11450397  0.36972647    -0.23200
H2380       H  0.28494889  0.15226583  0.36480104     0.18000
C2381       C  0.12686479  0.34110679  0.39628070    -0.27200
C2382       C  0.11411735  0.31133392  0.38999894     0.06400
C2383       C  0.08002550  0.29020875  0.38989422     0.26000
C2384       C  0.05947432  0.29884618  0.39584850    -0.11700
C2385       C  0.07217803  0.32906780  0.40173526    -0.25700
C2386       C  0.10615696  0.35018050  0.40191371     0.36800
C2387       C  0.13628381  0.30255732  0.38353365     0.06400
F2388       F  0.06629043  0.26190626  0.38352979    -0.19500
H2389       H  0.03333329  0.28250264  0.39530894     0.16200
F2390       F  0.11935404  0.37958236  0.40751273    -0.23200
H2391       H  0.15296338  0.35754294  0.39679305     0.18000
C2392       C  0.16277014  0.32574865  0.37661687     0.26000
C2393       C  0.18344827  0.31714343  0.37070173    -0.11700
C2394       C  0.17789166  0.28511108  0.37128526    -0.25700
C2395       C  0.15090264  0.26173164  0.37793339     0.36900
C2396       C  0.13083317  0.27057182  0.38413769    -0.27400
F2397       F  0.16833600  0.35659374  0.37530564    -0.19500
H2398       H  0.20399848  0.33573418  0.36569501     0.16200
F2399       F  0.14326519  0.23004540  0.37820395    -0.23200
H2400       H  0.11094240  0.25221143  0.38946219     0.18000
C2401       C  0.45111129  0.52846550  0.27011484    -0.27200
C2402       C  0.44978193  0.55379305  0.26405434     0.06400
C2403       C  0.42946598  0.54625244  0.25393582     0.26000
C2404       C  0.41187676  0.51421918  0.24967942    -0.11700
C2405       C  0.41434053  0.48891967  0.25532851    -0.25700
C2406       C  0.43365510  0.49632400  0.26582147     0.36800
C2407       C  0.47106328  0.58817551  0.26788091     0.06400
F2408       F  0.42695015  0.56999706  0.24805969    -0.19500
H2409       H  0.39710546  0.50951304  0.24166539     0.16200
F2410       F  0.43674828  0.47292248  0.27170138    -0.23200
H2411       H  0.46671633  0.53380934  0.27792744     0.18000
C2412       C  0.47098141  0.59775371  0.27985131     0.26000
C2413       C  0.49288218  0.62968974  0.28351498    -0.11700
C2414       C  0.51582228  0.65260229  0.27539954    -0.25700
C2415       C  0.51503680  0.64324958  0.26329295     0.36900
C2416       C  0.49276433  0.61137349  0.25959977    -0.27400
F2417       F  0.44989477  0.57615039  0.28802603    -0.19500
H2418       H  0.49243321  0.63631015  0.29283051     0.16200
F2419       F  0.53705533  0.66414490  0.25518775    -0.23200
H2420       H  0.49338385  0.60438249  0.25034783     0.18000
C2421       C  0.57211000  0.49891955  0.19570084    -0.27200
C2422       C  0.56250700  0.49821970  0.20770098     0.06400
C2423       C  0.58503982  0.52053664  0.21604477     0.26000
C2424       C  0.61637103  0.54382514  0.21229632    -0.11700
C2425       C  0.62565146  0.54525576  0.20019315    -0.25700
C2426       C  0.60342266  0.52216323  0.19195196     0.36800
C2427       C  0.52852511  0.47539514  0.21134930     0.06400
F2428       F  0.57621862  0.52088765  0.22766749    -0.19500
H2429       H  0.63298100  0.56157649  0.21875195     0.16200
F2430       F  0.61194206  0.52213452  0.18026745    -0.23200
H2431       H  0.55516278  0.48162822  0.18920212     0.18000
C2432       C  0.50243220  0.47555408  0.20540824     0.26000
C2433       C  0.47063544  0.45651759  0.20972044    -0.11700
C2434       C  0.46426134  0.43702978  0.22004718    -0.25700
C2435       C  0.49037041  0.43552308  0.22554954     0.36900
C2436       C  0.52214088  0.45466920  0.22123042    -0.27400
F2437       F  0.50792516  0.49567864  0.19589758    -0.19500
H2438       H  0.45122901  0.45827498  0.20527675     0.16200
F2439       F  0.48565929  0.41674486  0.23542292    -0.23200
H2440       H  0.54197705  0.45394892  0.22579867     0.18000
C2441       C  0.23251535  0.39824391  0.25697480    -0.27200
C2442       C  0.23256908  0.42590575  0.25242964     0.06400
C2443       C  0.25196956  0.44163795  0.24225209     0.26000
C2444       C  0.27121835  0.43014362  0.23696262    -0.11700
C2445       C  0.27128702  0.40254466  0.24160022    -0.25700
C2446       C  0.25130337  0.38651085  0.25163337     0.36800
C2447       C  0.21312914  0.43844046  0.25867215     0.06400
F2448       F  0.25223941  0.46801024  0.23736829    -0.19500
H2449       H  0.28637122  0.44309560  0.22929924     0.16200
F2450       F  0.25105221  0.36038184  0.25674965    -0.23200
H2451       H  0.21855903  0.38609764  0.26496624     0.18000
C2452       C  0.18099285  0.41686262  0.26257530     0.26000
C2453       C  0.16383888  0.42833264  0.26930140    -0.11700
C2454       C  0.17796877  0.46156992  0.27208337    -0.25700
C2455       C  0.20969797  0.48337722  0.26796099     0.36900
C2456       C  0.22715753  0.47183975  0.26140469    -0.27400
F2457       F  0.16594535  0.38465046  0.25977662    -0.19500
H2458       H  0.13926719  0.41123394  0.27226714     0.16200
F2459       F  0.22422820  0.51563094  0.27065866    -0.23200
H2460       H  0.25200450  0.48894178  0.25874728     0.18000
C2461       C  0.24195938  0.30433383  0.31453293    -0.27200
C2462       C  0.27524178  0.31574665  0.31245069     0.06400
C2463       C  0.29509932  0.31742523  0.32216829     0.26000
C2464       C  0.28170674  0.30720422  0.33362939    -0.11700
C2465       C  0.24825170  0.29482546  0.33564975    -0.25700
C2466       C  0.22847040  0.29377309  0.32600613     0.36800
C2467       C  0.28896066  0.32467496  0.30010793     0.06400
F2468       F  0.32717627  0.32755219  0.32049607    -0.19500
H2469       H  0.29744557  0.30836123  0.34092854     0.16200
F2470       F  0.19588563  0.28108305  0.32751345    -0.23200
H2471       H  0.22626500  0.30313087  0.30721417     0.18000
C2472       C  0.27334492  0.30368507  0.29030027     0.26000
C2473       C  0.28728043  0.31163497  0.27882003    -0.11700
C2474       C  0.31719235  0.34045796  0.27688173    -0.25700
C2475       C  0.33263719  0.36162489  0.28668270     0.36900
C2476       C  0.31849937  0.35380724  0.29813889    -0.27400
F2477       F  0.24515948  0.27494177  0.29186530    -0.19500
H2478       H  0.27480843  0.29489273  0.27145846     0.16200
F2479       F  0.36104786  0.39019595  0.28519493    -0.23200
H2480       H  0.33065642  0.37064158  0.30550546     0.18000
C2481       C  0.23873438  0.87348769  0.03879177    -0.27200
C2482       C  0.23750557  0.84790237  0.04554592     0.06400
C2483       C  0.25718200  0.85515911  0.05583540     0.26000
C2484       C  0.27647866  0.88749096  0.05964031    -0.11700
C2485       C  0.27624816  0.91318255  0.05333073    -0.25700
C2486       C  0.25775386  0.90582369  0.04262669     0.36800
C2487       C  0.21412984  0.81380817  0.04212077     0.06400
F2488       F  0.25719046  0.83091771  0.06233774    -0.19500
H2489       H  0.29054372  0.89219464  0.06784860     0.16200
F2490       F  0.25663431  0.92951961  0.03615100    -0.23200
H2491       H  0.22373459  0.86825545  0.03080284     0.18000
C2492       C  0.18887911  0.79317412  0.05001146     0.26000
C2493       C  0.16463957  0.76224621  0.04616270    -0.11700
C2494       C  0.16514946  0.75161977  0.03439203    -0.25700
C2495       C  0.19118201  0.77176008  0.02669488     0.36900
C2496       C  0.21533723  0.80265116  0.03053011    -0.27400
F2497       F  0.18658065  0.80369268  0.06116197    -0.19500
H2498       H  0.14465329  0.74718379  0.05217800     0.16200
F2499       F  0.19297003  0.76169088  0.01540264    -0.23200
H2500       H  0.23471051  0.81819268  0.02437160     0.18000
C2501       C  0.17096636  0.95778906  0.08988060    -0.27200
C2502       C  0.16175528  0.93135244  0.09768732     0.06400
C2503       C  0.18478704  0.92247997  0.10104890     0.26000
C2504       C  0.21640363  0.93932591  0.09639340    -0.11700
C2505       C  0.22552452  0.96514727  0.08822976    -0.25700
C2506       C  0.20266626  0.97475074  0.08521577     0.36800
C2507       C  0.12761034  0.91142036  0.10168052     0.06400
F2508       F  0.17613634  0.89637172  0.10832597    -0.19500
H2509       H  0.23331066  0.93116117  0.09876328     0.16200
F2510       F  0.21078502  0.00022356  0.07766504    -0.23200
H2511       H  0.15341403  0.96491117  0.08725845     0.18000
C2512       C  0.11954951  0.90965431  0.11392506     0.26000
C2513       C  0.08807532  0.88718878  0.11782156    -0.11700
C2514       C  0.06427523  0.86571308  0.10960073    -0.25700
C2515       C  0.07211840  0.86860693  0.09724198     0.36900
C2516       C  0.10352040  0.89147068  0.09334362    -0.27400
F2517       F  0.14240093  0.92902879  0.12213117    -0.19500
H2518       H  0.08255071  0.88591935  0.12734920     0.16200
F2519       F  0.05028659  0.84789037  0.08903019    -0.23200
H2520       H  0.10957132  0.89242490  0.08387736     0.18000
C2521       C  0.45071768  0.97801468  0.06941740    -0.27200
C2522       C  0.46704630  0.99213971  0.05856376     0.06400
C2523       C  0.46097021  0.01488810  0.05271863     0.26000
C2524       C  0.43933581  0.02345353  0.05771841    -0.11700
C2525       C  0.42251434  0.00890202  0.06842865    -0.25700
C2526       C  0.42842962  0.98608219  0.07429097     0.36800
C2527       C  0.48888613  0.98183404  0.05299151     0.06400
F2528       F  0.47445459  0.02742062  0.04181588    -0.19500
H2529       H  0.43446074  0.04043819  0.05282976     0.16200
F2530       F  0.41265901  0.97160404  0.08467377    -0.23200
H2531       H  0.45500090  0.96033014  0.07407393     0.18000
C2532       C  0.51980012  0.00498026  0.04853224     0.26000
C2533       C  0.53880987  0.99486136  0.04231974    -0.11700
C2534       C  0.52767928  0.96155328  0.04064766    -0.25700
C2535       C  0.49738446  0.93835598  0.04551712     0.36900
C2536       C  0.47815944  0.94847610  0.05160379    -0.27400
F2537       F  0.53174211  0.03738850  0.05024249    -0.19500
H2538       H  0.56233141  0.01305397  0.03882481     0.16200
F2539       F  0.48572710  0.90595292  0.04393160    -0.23200
H2540       H  0.45442448  0.93024442  0.05490536     0.18000
C2541       C  0.44384794  0.12970117  0.99637100    -0.27200
C2542       C  0.42467609  0.09565407  0.99740791     0.06400
C2543       C  0.42059063  0.07614426  0.98725057     0.26000
C2544       C  0.43479032  0.09069735  0.97619639    -0.11700
C2545       C  0.45302339  0.12485345  0.97510165    -0.25700
C2546       C  0.45795629  0.14419532  0.98538399     0.36800
C2547       C  0.40816115  0.08136333  0.00902863     0.06400
F2548       F  0.40280778  0.04312846  0.98800510    -0.19500
H2549       H  0.43058240  0.07533499  0.96838993     0.16200
F2550       F  0.47613141  0.17722375  0.98478161    -0.23200
H2551       H  0.44718322  0.14524060  0.00404268     0.18000
C2552       C  0.42582570  0.09126800  0.01987022     0.26000
C2553       C  0.40963516  0.08175705  0.03090459    -0.11700
C2554       C  0.37540535  0.06200706  0.03146388    -0.25700
C2555       C  0.35787671  0.05053660  0.02057715     0.36900
C2556       C  0.37419504  0.06030271  0.00948015    -0.27400
F2557       F  0.45881341  0.11056073  0.01978957    -0.19500
H2558       H  0.42414142  0.09034591  0.03907032     0.16200
F2559       F  0.32499675  0.03067329  0.02060117    -0.23200
H2560       H  0.36007508  0.05241782  0.00120842     0.18000
C2561       C  0.56980686  0.08887034  0.20498202    -0.27200
C2562       C  0.56899985  0.11425539  0.21119692     0.06400
C2563       C  0.58897239  0.12803208  0.22134685     0.26000
C2564       C  0.60806561  0.11537462  0.22560597    -0.11700
C2565       C  0.60721334  0.08838688  0.21993313    -0.25700
C2566       C  0.58865216  0.07589395  0.20930791     0.36800
C2567       C  0.54551394  0.12458322  0.20763358     0.06400
F2568       F  0.58924967  0.15314132  0.22734514    -0.19500
H2569       H  0.62212552  0.12562894  0.23376444     0.16200
F2570       F  0.58778642  0.05047543  0.20332718    -0.23200
H2571       H  0.55464618  0.07809441  0.19709200     0.18000
C2572       C  0.54592225  0.13629079  0.19598941     0.26000
C2573       C  0.52274221  0.14480767  0.19266761    -0.11700
C2574       C  0.49837773  0.14124369  0.20081856    -0.25700
C2575       C  0.49813027  0.12960526  0.21250695     0.36900
C2576       C  0.52166537  0.12158488  0.21587552    -0.27400
F2577       F  0.56880118  0.13959955  0.18786229    -0.19500
H2578       H  0.52363801  0.15393499  0.18364314     0.16200
F2579       F  0.47423799  0.12438477  0.22046766    -0.23200
H2580       H  0.52071166  0.11205887  0.22483458     0.18000
C2581       C  0.42912123  0.12862540  0.14755442    -0.27200
C2582       C  0.39678465  0.10337242  0.14594985     0.06400
C2583       C  0.37577363  0.09173523  0.15596991     0.26000
C2584       C  0.38720488  0.10507219  0.16742280    -0.11700
C2585       C  0.41978049  0.12971124  0.16901535    -0.25700
C2586       C  0.44060738  0.14161672  0.15898446     0.36800
C2587       C  0.38578848  0.08881342  0.13384451     0.06400
F2588       F  0.34431938  0.06748935  0.15467428    -0.19500
H2589       H  0.37098923  0.09550380  0.17510628     0.16200
F2590       F  0.47221516  0.16552464  0.16030010    -0.23200
H2591       H  0.44576166  0.13770052  0.13997638     0.18000
C2592       C  0.39049121  0.10873763  0.12381074     0.26000
C2593       C  0.38249283  0.09523198  0.11227456    -0.11700
C2594       C  0.36961645  0.06156817  0.11047337    -0.25700
C2595       C  0.36423203  0.04149124  0.12059186     0.36900
C2596       C  0.37231584  0.05510985  0.13215451    -0.27400
F2597       F  0.40273895  0.14130830  0.12517509    -0.19500
H2598       H  0.38649578  0.11129423  0.10472457     0.16200
F2599       F  0.35204819  0.00890867  0.11933692    -0.23200
H2600       H  0.36888981  0.03943217  0.13977663     0.18000
C2601       C  0.38239699  0.19694424  0.21540250    -0.27200
C2602       C  0.40535438  0.22856605  0.21928146     0.06400
C2603       C  0.43875039  0.23994550  0.21739231     0.26000
C2604       C  0.44871811  0.22038986  0.21139650    -0.11700
C2605       C  0.42562670  0.18928545  0.20710789    -0.25700
C2606       C  0.39233987  0.17750823  0.20935143     0.36800
C2607       C  0.39412137  0.25003652  0.22463477     0.06400
F2608       F  0.46164764  0.27056899  0.22077937    -0.19500
H2609       H  0.47445377  0.23003905  0.20969744     0.16200
F2610       F  0.36940943  0.14716152  0.20569793    -0.23200
H2611       H  0.35661393  0.18742192  0.21693998     0.18000
C2612       C  0.37039990  0.25445429  0.21870072     0.26000
C2613       C  0.36044395  0.27531211  0.22349804    -0.11700
C2614       C  0.37415451  0.29267666  0.23423640    -0.25700
C2615       C  0.39763713  0.28799145  0.24027895     0.36900
C2616       C  0.40739443  0.26677660  0.23551854    -0.27400
F2617       F  0.35787760  0.23974405  0.20794528    -0.19500
H2618       H  0.34279096  0.27882411  0.21851401     0.16200
F2619       F  0.41106822  0.30375737  0.25078739    -0.23200
H2620       H  0.42541227  0.26346805  0.24032184     0.18000
C2621       C  0.17529225  0.29132019  0.09028973    -0.27200
C2622       C  0.15139838  0.28865336  0.09843819     0.06400
C2623       C  0.14980334  0.27582491  0.10995391     0.26000
C2624       C  0.17224183  0.26641942  0.11335275    -0.11700
C2625       C  0.19701289  0.27005333  0.10539762    -0.25700
C2626       C  0.19811269  0.28229144  0.09373501     0.36800
C2627       C  0.12892339  0.30034187  0.09502039     0.06400
F2628       F  0.12659512  0.27253255  0.11791683    -0.19500
H2629       H  0.17048378  0.25657626  0.12231230     0.16200
F2630       F  0.22209224  0.28704059  0.08589542    -0.23200
H2631       H  0.17684047  0.30134484  0.08137764     0.18000
C2632       C  0.13229984  0.32901732  0.10009971     0.26000
C2633       C  0.11256780  0.34134818  0.09613631    -0.11700
C2634       C  0.08908418  0.32523069  0.08705349    -0.25700
C2635       C  0.08459657  0.29538695  0.08250492     0.36900
C2636       C  0.10459789  0.28334223  0.08639606    -0.27400
F2637       F  0.15577401  0.34591120  0.10846499    -0.19500
H2638       H  0.11676613  0.36433780  0.09978671     0.16200
F2639       F  0.06148061  0.27817419  0.07406035    -0.23200
H2640       H  0.10143506  0.26092286  0.08254525     0.18000
C2641       C  0.24868879  0.16706009  0.08762190    -0.27200
C2642       C  0.28088473  0.17299235  0.08791640     0.06400
C2643       C  0.30446407  0.20026924  0.09442496     0.26000
C2644       C  0.29582272  0.22070707  0.10052624    -0.11700
C2645       C  0.26344972  0.21430554  0.10047244    -0.25700
C2646       C  0.23989319  0.18706303  0.09393593     0.36800
C2647       C  0.28935541  0.15000336  0.08188512     0.06400
F2648       F  0.33566390  0.20656751  0.09531389    -0.19500
H2649       H  0.31454395  0.24150119  0.10541221     0.16200
F2650       F  0.20800675  0.17876671  0.09404611    -0.23200
H2651       H  0.23005210  0.14656516  0.08259024     0.18000
C2652       C  0.26890286  0.11594198  0.08301254     0.26000
C2653       C  0.27784798  0.09461702  0.07787967    -0.11700
C2654       C  0.30770287  0.10661667  0.07182938    -0.25700
C2655       C  0.32795256  0.14047379  0.07048840     0.36900
C2656       C  0.31856693  0.16188469  0.07529692    -0.27400
F2657       F  0.24116421  0.10314724  0.08967716    -0.19500
H2658       H  0.26220604  0.06860855  0.07923045     0.16200
F2659       F  0.35681993  0.15281146  0.06456884    -0.23200
H2660       H  0.33443275  0.18785482  0.07400377     0.18000
C2661       C  0.28716453  0.29597490  0.18434664    -0.27200
C2662       C  0.30137699  0.31561988  0.17417269     0.06400
C2663       C  0.32337468  0.34915249  0.17581989     0.26000
C2664       C  0.33072040  0.36258827  0.18745671    -0.11700
C2665       C  0.31614840  0.34294377  0.19767114    -0.25700
C2666       C  0.29432032  0.30927115  0.19593365     0.36800
C2667       C  0.29099351  0.30110610  0.16195779     0.06400
F2668       F  0.33677795  0.36917102  0.16618511    -0.19500
H2669       H  0.34761039  0.38848927  0.18844851     0.16200
F2670       F  0.27968213  0.28890491  0.20539262    -0.23200
H2671       H  0.27019989  0.27008983  0.18330541     0.18000
C2672       C  0.31367578  0.30566513  0.15286892     0.26000
C2673       C  0.30284294  0.29263232  0.14130149    -0.11700
C2674       C  0.26932942  0.27495952  0.13865479    -0.25700
C2675       C  0.24676669  0.26919598  0.14791047     0.36900
C2676       C  0.25753651  0.28221555  0.15938844    -0.27400
F2677       F  0.34619324  0.32250660  0.15518131    -0.19500
H2678       H  0.32059815  0.29717471  0.13431593     0.16200
F2679       F  0.21417364  0.25116834  0.14580897    -0.23200
H2680       H  0.23959258  0.27809726  0.16624701     0.18000
C2681       C  0.09765161  0.87081779  0.59913041    -0.27200
C2682       C  0.13188728  0.88544465  0.59929027     0.06400
C2683       C  0.14591929  0.86662179  0.59575194     0.26000
C2684       C  0.12622539  0.83418148  0.59220939    -0.11700
C2685       C  0.09221044  0.81996477  0.59170490    -0.25700
C2686       C  0.07796845  0.83852752  0.59519584     0.36800
C2687       C  0.15302603  0.92006769  0.60314304     0.06400
F2688       F  0.17879637  0.87997139  0.59512750    -0.19500
H2689       H  0.13776328  0.82062567  0.58922334     0.16200
F2690       F  0.04509738  0.82543630  0.59481360    -0.23200
H2691       H  0.08609423  0.88440829  0.60201668     0.18000
C2692       C  0.14753094  0.94509592  0.59908620     0.26000
C2693       C  0.16852315  0.97758656  0.60256761    -0.11700
C2694       C  0.19561468  0.98589376  0.61002472    -0.25700
C2695       C  0.20126554  0.96080038  0.61388687     0.36900
C2696       C  0.17986267  0.92842654  0.61070080    -0.27400
F2697       F  0.12239432  0.93837856  0.59152673    -0.19500
H2698       H  0.16338388  0.99622107  0.59950097     0.16200
F2699       F  0.22799882  0.96747049  0.62051887    -0.23200
H2700       H  0.18452978  0.90977853  0.61413195     0.18000
C2701       C  0.19296212  0.78948410  0.55672461    -0.27200
C2702       C  0.19803344  0.80935605  0.54664579     0.06400
C2703       C  0.17089042  0.80730972  0.54067361     0.26000
C2704       C  0.13958888  0.78793541  0.54535150    -0.11700
C2705       C  0.13465863  0.76977801  0.55593410    -0.25700
C2706       C  0.16155986  0.76972542  0.56133675     0.36800
C2707       C  0.23162408  0.83340839  0.54281878     0.06400
F2708       F  0.17469934  0.82455032  0.53043580    -0.19500
H2709       H  0.11925660  0.78787875  0.54086644     0.16200
F2710       F  0.15796754  0.75239730  0.57153001    -0.23200
H2711       H  0.21351937  0.79046191  0.56138630     0.18000
C2712       C  0.24063835  0.86626280  0.54098062     0.26000
C2713       C  0.27196679  0.88866032  0.53699590    -0.11700
C2714       C  0.29504483  0.87892952  0.53507193    -0.25700
C2715       C  0.28662734  0.84650534  0.53736656     0.36900
C2716       C  0.25506181  0.82388710  0.54119371    -0.27400
F2717       F  0.21931071  0.87683203  0.54321060    -0.19500
H2718       H  0.27827825  0.91369186  0.53536884     0.16200
F2719       F  0.30850033  0.83648483  0.53542245    -0.23200
H2720       H  0.24868724  0.79877755  0.54264217     0.18000
C2721       C  0.89713467  0.78828044  0.60682491    -0.27200
C2722       C  0.88954045  0.77834376  0.59475296     0.06400
C2723       C  0.86520785  0.78195458  0.58891982     0.26000
C2724       C  0.84823274  0.79447180  0.59520548    -0.11700
C2725       C  0.85522110  0.80360593  0.60739702    -0.25700
C2726       C  0.88036184  0.80098185  0.61308253     0.36800
C2727       C  0.90654703  0.76336734  0.58854263     0.06400
F2728       F  0.85694250  0.77213809  0.57731372    -0.19500
H2729       H  0.82890295  0.79611717  0.59064420     0.16200
F2730       F  0.88897465  0.81103134  0.62465151    -0.23200
H2731       H  0.91615316  0.78614845  0.61141758     0.18000
C2732       C  0.92473674  0.77703764  0.57798224     0.26000
C2733       C  0.94287016  0.76410577  0.57287685    -0.11700
C2734       C  0.94299248  0.73711397  0.57812240    -0.25700
C2735       C  0.92360025  0.72270105  0.58844258     0.36900
C2736       C  0.90583969  0.73590567  0.59359608    -0.27400
F2737       F  0.92629130  0.80386738  0.57294967    -0.19500
H2738       H  0.95753700  0.77581727  0.56497260     0.16200
F2739       F  0.92292806  0.69682258  0.59395193    -0.23200
H2740       H  0.89184593  0.72495702  0.60171062     0.18000
C2741       C  0.98649695  0.67240642  0.63299732    -0.27200
C2742       C  0.95219591  0.65540788  0.63325211     0.06400
C2743       C  0.93491907  0.64808163  0.62233301     0.26000
C2744       C  0.95161042  0.65614382  0.61139051    -0.11700
C2745       C  0.98590611  0.67226797  0.61105602    -0.25700
C2746       C  0.00331509  0.68096124  0.62200207     0.36800
C2747       C  0.93463394  0.64381746  0.64486025     0.06400
F2748       F  0.90185761  0.63331524  0.62223886    -0.19500
H2749       H  0.93754160  0.64995754  0.60312687     0.16200
F2750       F  0.03641762  0.69680727  0.62210641    -0.23200
H2751       H  0.00025588  0.67829357  0.64132913     0.18000
C2752       C  0.91116329  0.61068200  0.64642313     0.26000
C2753       C  0.89652713  0.59928436  0.65763773    -0.11700
C2754       C  0.90490793  0.62059239  0.66749411    -0.25700
C2755       C  0.92758086  0.65390875  0.66588064     0.36900
C2756       C  0.94244376  0.66534992  0.65464401    -0.27400
F2757       F  0.90362577  0.58895490  0.63728767    -0.19500
H2758       H  0.87917323  0.57351733  0.65873212     0.16200
F2759       F  0.93661604  0.67499915  0.67530001    -0.23200
H2760       H  0.96046708  0.69094002  0.65361628     0.18000
C2761       C  0.86306806  0.65901819  0.43613894    -0.27200
C2762       C  0.83150676  0.63394391  0.43313413     0.06400
C2763       C  0.82494235  0.60146293  0.43301658     0.26000
C2764       C  0.84931722  0.59438749  0.43617344    -0.11700
C2765       C  0.88043674  0.61945039  0.43959758    -0.25700
C2766       C  0.88722870  0.65191624  0.43941987     0.36800
C2767       C  0.80619077  0.64227829  0.42981689     0.06400
F2768       F  0.79471364  0.57646015  0.43028946    -0.19500
H2769       H  0.84355293  0.56919717  0.43637085     0.16200
F2770       F  0.91731734  0.67681200  0.44239968    -0.23200
H2771       H  0.86912159  0.68428821  0.43590638     0.18000
C2772       C  0.80216139  0.66519101  0.43656857     0.26000
C2773       C  0.78135799  0.67606990  0.43248241    -0.11700
C2774       C  0.76390652  0.66416690  0.42164569    -0.25700
C2775       C  0.76615593  0.63941015  0.41538502     0.36900
C2776       C  0.78731283  0.62893495  0.41939023    -0.27400
F2777       F  0.81881098  0.67755872  0.44701923    -0.19500
H2778       H  0.77988500  0.69474331  0.43760651     0.16200
F2779       F  0.74899260  0.62611935  0.40509953    -0.23200
H2780       H  0.78995888  0.61134779  0.41400005     0.18000
C2781       C  0.97527481  0.67389762  0.48709652    -0.27200
C2782       C  0.97458530  0.65304712  0.49619215     0.06400
C2783       C  0.96621589  0.62091849  0.49317541     0.26000
C2784       C  0.95723124  0.60954511  0.48134772    -0.11700
C2785       C  0.95644228  0.63000431  0.47236167    -0.25700
C2786       C  0.96652801  0.66266499  0.47529414     0.36800
C2787       C  0.98088647  0.66456314  0.50885583     0.06400
F2788       F  0.96634556  0.60044824  0.50169704    -0.19500
H2789       H  0.94959885  0.58434710  0.47933322     0.16200
F2790       F  0.96737155  0.68364515  0.46678324    -0.23200
H2791       H  0.98160019  0.69870953  0.48921219     0.18000
C2792       C  0.00858932  0.69439551  0.51195077     0.26000
C2793       C  0.01352327  0.70552769  0.52385967    -0.11700
C2794       C  0.99096269  0.68719898  0.53293747    -0.25700
C2795       C  0.96303166  0.65740374  0.52976963     0.36900
C2796       C  0.95817477  0.64633376  0.51785359    -0.27400
F2797       F  0.03126521  0.71246232  0.50350583    -0.19500
H2798       H  0.03538168  0.72835442  0.52598962     0.16200
F2799       F  0.94026862  0.63888116  0.53812281    -0.23200
H2800       H  0.93631597  0.62361335  0.51560707     0.18000
C2801       C  0.93940061  0.45676002  0.41957294    -0.27200
C2802       C  0.96105678  0.49014639  0.41751696     0.06400
C2803       C  0.98870765  0.49925593  0.41022601     0.26000
C2804       C  0.99490144  0.47546255  0.40549312    -0.11700
C2805       C  0.97319482  0.44221486  0.40762271    -0.25700
C2806       C  0.94511142  0.43303238  0.41456767     0.36800
C2807       C  0.95504529  0.51498128  0.42338064     0.06400
F2808       F  0.00963147  0.53107961  0.40759955    -0.19500
H2809       H  0.01668630  0.48298077  0.40016454     0.16200
F2810       F  0.92417557  0.40114923  0.41713368    -0.23200
H2811       H  0.91841517  0.44895003  0.42538179     0.18000
C2812       C  0.92348438  0.51082947  0.42371861     0.26000
C2813       C  0.91756775  0.53291804  0.42998274    -0.11700
C2814       C  0.94296570  0.56013346  0.43587658    -0.25700
C2815       C  0.97476856  0.56486321  0.43524999     0.36900
C2816       C  0.98057068  0.54233090  0.42917798    -0.27400
F2817       F  0.89826450  0.48554278  0.41788806    -0.19500
H2818       H  0.89280902  0.52841373  0.43032302     0.16200
F2819       F  0.00041674  0.59151389  0.44029456    -0.23200
H2820       H  0.00505649  0.54605937  0.42918657     0.18000
C2821       C  0.26469498  0.46587965  0.55344744    -0.27200
C2822       C  0.24577763  0.45441331  0.54296484     0.06400
C2823       C  0.24687615  0.42996617  0.53612902     0.26000
C2824       C  0.26401546  0.41502961  0.54042945    -0.11700
C2825       C  0.28065035  0.42450728  0.55153242    -0.25700
C2826       C  0.28217851  0.45141139  0.55767134     0.36800
C2827       C  0.22219016  0.46528625  0.54004872     0.06400
F2828       F  0.22936396  0.41879546  0.52578360    -0.19500
H2829       H  0.26273916  0.39485647  0.53538249     0.16200
F2830       F  0.29889909  0.46267767  0.56817393    -0.23200
H2831       H  0.26473632  0.48520278  0.55868537     0.18000
C2832       C  0.19838463  0.46128567  0.54855495     0.26000
C2833       C  0.17415421  0.46862968  0.54550808    -0.11700
C2834       C  0.17315668  0.47997501  0.53393318    -0.25700
C2835       C  0.19790925  0.48549549  0.52561891     0.36900
C2836       C  0.22209002  0.47802590  0.52865072    -0.27400
F2837       F  0.19742968  0.44844079  0.55958676    -0.19500
H2838       H  0.15521235  0.46392682  0.55199970     0.16200
F2839       F  0.19837742  0.49767014  0.51449763    -0.23200
H2840       H  0.24046781  0.48171623  0.52204586     0.18000
C2841       C  0.03330529  0.58045015  0.55347397    -0.27200
C2842       C  0.06214974  0.58194134  0.55749599     0.06400
C2843       C  0.08030240  0.60437554  0.56666510     0.26000
C2844       C  0.07004984  0.62508445  0.57149459    -0.11700
C2845       C  0.04148476  0.62407300  0.56732259    -0.25700
C2846       C  0.02297907  0.60108661  0.55830064     0.36800
C2847       C  0.07362035  0.56089912  0.55180213     0.06400
F2848       F  0.10795074  0.60623630  0.57102216    -0.19500
H2849       H  0.08494595  0.64239864  0.57838695     0.16200
F2850       F  0.99524148  0.59890159  0.55387975    -0.23200
H2851       H  0.01907833  0.56380539  0.54630751     0.18000
C2852       C  0.05201769  0.52741227  0.54972119     0.26000
C2853       C  0.06276987  0.50837301  0.54380765    -0.11700
C2854       C  0.09532718  0.52211289  0.54000807    -0.25700
C2855       C  0.11705598  0.55538330  0.54224334     0.36900
C2856       C  0.10623234  0.57453322  0.54800943    -0.27400
F2857       F  0.02059799  0.51295357  0.55354401    -0.19500
H2858       H  0.04565516  0.48275438  0.54222377     0.16200
F2859       F  0.14843724  0.56970059  0.53838587    -0.23200
H2860       H  0.12324601  0.60032106  0.54924131     0.18000
C2861       C  0.06875190  0.45709738  0.48378159    -0.27200
C2862       C  0.06107017  0.42498903  0.48121623     0.06400
C2863       C  0.06481334  0.40648472  0.49031948     0.26000
C2864       C  0.07642432  0.42016030  0.50170991    -0.11700
C2865       C  0.08452121  0.45245649  0.50421526    -0.25700
C2866       C  0.08034317  0.47075368  0.49515549     0.36800
C2867       C  0.05094869  0.41187537  0.46884074     0.06400
F2868       F  0.05879659  0.37581222  0.48803421    -0.19500
H2869       H  0.07977212  0.40574837  0.50852610     0.16200
F2870       F  0.08914277  0.50240568  0.49708095    -0.23200
H2871       H  0.06624053  0.47182397  0.47687139     0.18000
C2872       C  0.02230991  0.38190648  0.46670899     0.26000
C2873       C  0.01309188  0.37035842  0.45490711    -0.11700
C2874       C  0.03208379  0.38859924  0.44502865    -0.25700
C2875       C  0.06086725  0.41853233  0.44722293     0.36900
C2876       C  0.07006490  0.42992817  0.45899709    -0.27400
F2877       F  0.00273439  0.36429745  0.47599530    -0.19500
H2878       H  0.99075632  0.34737651  0.45348689     0.16200
F2879       F  0.08056644  0.43660222  0.43802744    -0.23200
H2880       H  0.09239996  0.45290312  0.46045105     0.18000
loop_ 
_geom_bond_atom_site_label_1 
_geom_bond_atom_site_label_2 
_geom_bond_distance 
_geom_bond_site_symmetry_2 
_ccdc_geom_bond_type 
C1            C2   1.410       .  A
C1            C6   1.407       .  A
C1         C2854   1.487       .  S
C2            C3   1.408       .  A
C2            H7   1.084       .  S
C3            C4   1.401       .  A
C3         C2834   1.484       .  S
C4            C5   1.400       .  A
C4            H8   1.084       .  S
C5            C6   1.405       .  A
C5         C2865   1.483       .  S
C6            H9   1.084       .  S
C10          C11   1.410       .  A
C10          C15   1.412       .  A
C10        C2814   1.493       .  S
C11          C12   1.402       .  A
C11          H16   1.083       .  S
C12          C13   1.397       .  A
C12        C2765   1.479       .  S
C13          C14   1.400       .  A
C13          H17   1.084       .  S
C14          C15   1.407       .  A
C14        C2785   1.485       .  S
C15          H18   1.082       .  S
Fe19         O35   2.064       .  S
Fe19         O25   2.063       .  S
Fe19         O32   2.062   1_655  S
Fe19         O24   2.069       .  S
Fe19         O30   1.952   1_655  S
Fe20         O23   2.084       .  S
Fe20         O27   2.067       .  S
Fe20         O31   2.094       .  S
Fe20         O36   2.054       .  S
Fe20         O30   1.955       .  S
Fe21         O39   2.057       .  S
Fe21         O26   2.077       .  S
Fe21         O33   2.085   1_455  S
Fe21         O22   2.056       .  S
Fe21         O30   1.948       .  S
O22          C29   1.267   1_455  A
O23          C37   1.273       .  A
O24          C29   1.268       .  A
O25          C28   1.271       .  A
O26          C38   1.274       .  A
O27          C40   1.270       .  A
C28        C2734   1.490       .  S
C28          O33   1.274       .  A
C29        C2794   1.484       .  S
O31          C34   1.276       .  A
O32          C34   1.270       .  A
C34        C2845   1.495       .  S
O35          C40   1.269   1_655  A
O36          C38   1.270       .  A
C37        C2685   1.476       .  S
C37          O39   1.267       .  A
C38        C2705   1.479       .  S
C40        C2745   1.481   1_455  S
C41          C42   1.413       .  A
C41          C46   1.412       .  A
C41        C2645   1.495       .  S
C42          C43   1.404       .  A
C42          H47   1.083       .  S
C43          C44   1.399       .  A
C43        C2674   1.483       .  S
C44          C45   1.400       .  A
C44          H48   1.084       .  S
C45          C46   1.406       .  A
C45        C2625   1.488       .  S
C46          H49   1.082       .  S
C50          C51   1.409       .  A
C50          C55   1.408       .  A
C50        C2605   1.486       .  S
C51          C52   1.408       .  A
C51          H56   1.083       .  S
C52          C53   1.401       .  A
C52        C2574   1.485       .  S
C53          C54   1.397       .  A
C53          H57   1.084       .  S
C54          C55   1.401       .  A
C54        C2585   1.473       .  S
C55          H58   1.084       .  S
Fe59         O75   2.059       .  S
Fe59         O65   2.043       .  S
Fe59         O72   2.049       .  S
Fe59         O64   2.065       .  S
Fe59         O70   1.979       .  S
Fe60         O63   2.059       .  S
Fe60         O67   2.069       .  S
Fe60         O71   2.065   1_565  S
Fe60         O76   2.065       .  S
Fe60         O70   1.980   1_565  S
Fe61         O79   2.066   1_545  S
Fe61         O66   2.066   1_545  S
Fe61         O73   2.084       .  S
Fe61         O62   2.072       .  S
Fe61         O70   1.976       .  S
O62          C69   1.270       .  A
O63          C77   1.267       .  A
O64          C69   1.269       .  A
O65          C68   1.264       .  A
O66          C78   1.271       .  A
O67          C80   1.271   1_565  A
C68        C2554   1.489       .  S
C68          O73   1.270       .  A
C69        C2654   1.478       .  S
O71          C74   1.266       .  A
O72          C74   1.264       .  A
C74        C2594   1.483       .  S
O75          C80   1.270       .  A
O76          C78   1.272       .  A
C77        C2485   1.487       .  S
C77          O79   1.269       .  A
C78        C2505   1.480       .  S
C80        C2525   1.476       .  S
Fe81         O97   2.053       .  S
Fe81         O87   2.060       .  S
Fe81         O94   2.061       .  S
Fe81         O86   2.056       .  S
Fe81         O92   1.974       .  S
Fe82         O85   2.070       .  S
Fe82         O89   2.073       .  S
Fe82         O93   2.085       .  S
Fe82         O98   2.056       .  S
Fe82         O92   1.976       .  S
Fe83        O101   2.051       .  S
Fe83         O88   2.078       .  S
Fe83         O95   2.087       .  S
Fe83         O84   2.058       .  S
Fe83         O92   1.976       .  S
O84          C91   1.265       .  A
O85          C99   1.272       .  A
O86          C91   1.265       .  A
O87          C90   1.271       .  A
O88         C100   1.272       .  A
O89         C102   1.267       .  A
C90        C2614   1.487       .  S
C90          O95   1.274       .  A
C91        C2474   1.481       .  S
O93          C96   1.274       .  A
O94          C96   1.271       .  A
C96        C2445   1.491       .  S
O97         C102   1.264       .  A
O98         C100   1.268       .  A
C99        C2434   1.483       .  S
C99         O101   1.267       .  A
C100       C2405   1.490       .  S
C102       C2665   1.490       .  S
C103        C104   1.409       .  A
C103        C108   1.410       .  A
C103       C2394   1.491       .  S
C104        C105   1.403       .  A
C104        H109   1.083       .  S
C105        C106   1.399       .  A
C105       C2365   1.482       .  S
C106        C107   1.400       .  A
C106        H110   1.084       .  S
C107        C108   1.405       .  A
C107       C2465   1.482       .  S
C108        H111   1.083       .  S
C112        C113   1.409       .  A
C112        C117   1.407       .  A
C112       C2454   1.483       .  S
C113        C114   1.407       .  A
C113        H118   1.084       .  S
C114        C115   1.401       .  A
C114       C2354   1.484       .  S
C115        C116   1.397       .  A
C115        H119   1.084       .  S
C116        C117   1.403       .  A
C116       C2334   1.474       .  S
C117        H120   1.084       .  S
Fe121       O137   2.073       .  S
Fe121       O127   2.049       .  S
Fe121       O134   2.036       .  S
Fe121       O126   2.073       .  S
Fe121       O132   1.976   1_455  S
Fe122       O125   2.076       .  S
Fe122       O129   2.073       .  S
Fe122       O133   2.086       .  S
Fe122       O138   2.073       .  S
Fe122       O132   1.976       .  S
Fe123       O141   2.069       .  S
Fe123       O128   2.048       .  S
Fe123       O135   2.071   1_655  S
Fe123       O124   2.066   1_655  S
Fe123       O132   1.968       .  S
O124        C131   1.272       .  A
O125        C139   1.272       .  A
O126        C131   1.272       .  A
O127        C130   1.263       .  A
O128        C140   1.266       .  A
O129        C142   1.273       .  A
C130       C2874   1.483       .  S
C130        O135   1.267       .  A
C131       C2385   1.480       .  S
O133        C136   1.269   1_655  A
O134        C136   1.262       .  A
C136       C2345   1.489       .  S
O137        C142   1.273   1_455  A
O138        C140   1.271       .  A
C139       C2305   1.490       .  S
C139        O141   1.273       .  A
C140       C2285   1.478       .  S
C142       C2805   1.476       .  S
C143        C144   1.405       .  A
C143        C148   1.408       .  A
C143       C2534   1.479       .  S
C144        C145   1.400       .  A
C144        H149   1.084       .  S
C145        C146   1.395       .  A
C145       C2245   1.466       .  S
C146        C147   1.400       .  A
C146        H150   1.084       .  S
C147        C148   1.404       .  A
C147       C2274   1.479       .  S
C148        H151   1.084       .  S
C152        C153   1.405       .  A
C152        C157   1.407       .  A
C152       C2234   1.478       .  S
C153        C154   1.402       .  A
C153        H158   1.084       .  S
C154        C155   1.401       .  A
C154       C2545   1.484       .  S
C155        C156   1.406       .  A
C155        H159   1.083       .  S
C156        C157   1.410       .  A
C156       C2205   1.494       .  S
C157        H160   1.083       .  S
Fe161       O177   2.048       .  S
Fe161       O167   2.082   1_545  S
Fe161       O174   2.077       .  S
Fe161       O166   2.040       .  S
Fe161       O172   1.978       .  S
Fe162       O165   2.067       .  S
Fe162       O169   2.062       .  S
Fe162       O173   2.067       .  S
Fe162       O178   2.055       .  S
Fe162       O172   1.973       .  S
Fe163       O181   2.071       .  S
Fe163       O168   2.063       .  S
Fe163       O175   2.066       .  S
Fe163       O164   2.075       .  S
Fe163       O172   1.974       .  S
O164        C171   1.267       .  A
O165        C179   1.269       .  A
O166        C171   1.261       .  A
O167        C170   1.274       .  A
O168        C180   1.270       .  A
O169        C182   1.266       .  A
C170       C2165   1.483       .  S
C170        O175   1.273   1_565  A
C171       C2265   1.485       .  S
O173        C176   1.270       .  A
O174        C176   1.273       .  A
C176       C2225   1.492       .  S
O177        C182   1.264       .  A
O178        C180   1.269       .  A
C179       C2134   1.492       .  S
C179        O181   1.270       .  A
C180       C2154   1.481       .  S
C182       C2185   1.480       .  S
C183        C184   1.412       .  A
C183        C188   1.411       .  A
C183       C2114   1.494       .  S
C184        C185   1.403       .  A
C184        H189   1.082       .  S
C185        C186   1.399       .  A
C185       C2754   1.478       .  S
C186        C187   1.396       .  A
C186        H190   1.085       .  S
C187        C188   1.402       .  A
C187       C2085   1.473       .  S
C188        H191   1.083       .  S
C192        C193   1.409       .  A
C192        C197   1.408       .  A
C192       C2725   1.488       .  S
C193        C194   1.405       .  A
C193        H198   1.083       .  S
C194        C195   1.403       .  A
C194       C2065   1.488       .  S
C195        C196   1.403       .  A
C195        H199   1.083       .  S
C196        C197   1.407       .  A
C196       C2054   1.487       .  S
C197        H200   1.084       .  S
C201        C202   1.414       .  A
C201        C206   1.413       .  A
C201       C2034   1.498       .  S
C202        C203   1.405       .  A
C202        H207   1.082       .  S
C203        C204   1.398       .  A
C203       C2194   1.483       .  S
C204        C205   1.396       .  A
C204        H208   1.084       .  S
C205        C206   1.404       .  A
C205       C2005   1.483       .  S
C206        H209   1.081       .  S
C210        C211   1.411       .  A
C210        C215   1.410       .  A
C210       C2174   1.489       .  S
C211        C212   1.407       .  A
C211        H216   1.083       .  S
C212        C213   1.400       .  A
C212       C1965   1.486       .  S
C213        C214   1.397       .  A
C213        H217   1.084       .  S
C214        C215   1.404       .  A
C214       C1985   1.483       .  S
C215        H218   1.083       .  S
Fe219       O235   2.070       .  S
Fe219       O225   2.041       .  S
Fe219       O232   2.045       .  S
Fe219       O224   2.072       .  S
Fe219       O230   1.974       .  S
Fe220       O223   2.064       .  S
Fe220       O227   2.066       .  S
Fe220       O231   2.071       .  S
Fe220       O236   2.064       .  S
Fe220       O230   1.973       .  S
Fe221       O239   2.067       .  S
Fe221       O226   2.071       .  S
Fe221       O233   2.086       .  S
Fe221       O222   2.067       .  S
Fe221       O230   1.972       .  S
O222        C229   1.272       .  A
O223        C237   1.270       .  A
O224        C229   1.272       .  A
O225        C228   1.262       .  A
O226        C238   1.271       .  A
O227        C240   1.272       .  A
C228       C2074   1.491       .  S
C228        O233   1.270       .  A
C229       C2025   1.478       .  S
O231        C234   1.267       .  A
O232        C234   1.262       .  A
C234       C1994   1.486       .  S
O235        C240   1.273       .  A
O236        C238   1.271       .  A
C237       C1925   1.487       .  S
C237        O239   1.270       .  A
C238       C1945   1.487       .  S
C240       C2105   1.486       .  S
C241        C242   1.413       .  A
C241        C246   1.419       .  A
C241       C1885   1.506       .  S
C242        C243   1.402       .  A
C242        H247   1.081       .  S
C243        C244   1.396       .  A
C243       C1954   1.479       .  S
C244        C245   1.399       .  A
C244        H248   1.085       .  S
C245        C246   1.410       .  A
C245       C1914   1.485       .  S
C246        H249   1.082       .  S
C250        C251   1.408       .  A
C250        C255   1.409       .  A
C250       C1865   1.487       .  S
C251        C252   1.403       .  A
C251        H256   1.084       .  S
C252        C253   1.400   1_455  A
C252       C1845   1.479       .  S
C253        C254   1.401       .  A
C253        H257   1.084       .  S
C254        C255   1.406   1_655  A
C254       C2125   1.483       .  S
C255        H258   1.084       .  S
Fe259       O275   2.064       .  S
Fe259       O265   2.049       .  S
Fe259       O272   2.044       .  S
Fe259       O264   2.060   1_455  S
Fe259       O270   1.979       .  S
Fe260       O263   2.064       .  S
Fe260       O267   2.083       .  S
Fe260       O271   2.082       .  S
Fe260       O276   2.076       .  S
Fe260       O270   1.979       .  S
Fe261       O279   2.071   1_655  S
Fe261       O266   2.057       .  S
Fe261       O273   2.070       .  S
Fe261       O262   2.074       .  S
Fe261       O270   1.979   1_655  S
O262        C269   1.271       .  A
O263        C277   1.269       .  A
O264        C269   1.269       .  A
O265        C268   1.265       .  A
O266        C278   1.268       .  A
O267        C280   1.274       .  A
C268       C1854   1.483       .  S
C268        O273   1.267   1_455  A
C269       C1805   1.485       .  S
O271        C274   1.269       .  A
O272        C274   1.263       .  A
C274       C1834   1.488       .  S
O275        C280   1.270       .  A
O276        C278   1.273   1_455  A
C277       C1794   1.489       .  S
C277        O279   1.271       .  A
C278       C2094   1.479       .  S
C280       C1894   1.487       .  S
Fe281       O297   2.078       .  S
Fe281       O287   2.046       .  S
Fe281       O294   2.050       .  S
Fe281       O286   2.073       .  S
Fe281       O292   1.948       .  S
Fe282       O285   2.074       .  S
Fe282       O289   2.072       .  S
Fe282       O293   2.086       .  S
Fe282       O298   2.063       .  S
Fe282       O292   1.950       .  S
Fe283       O301   2.062       .  S
Fe283       O288   2.082       .  S
Fe283       O295   2.098       .  S
Fe283       O284   2.065       .  S
Fe283       O292   1.952       .  S
O284        C291   1.269       .  A
O285        C299   1.272       .  A
O286        C291   1.270       .  A
O287        C290   1.267       .  A
O288        C300   1.274       .  A
O289        C302   1.272       .  A
C290       C1874   1.487       .  S
C290        O295   1.275       .  A
C291       C1765   1.486       .  S
O293        C296   1.272       .  A
O294        C296   1.267       .  A
C296       C1745   1.488       .  S
O297        C302   1.272       .  A
O298        C300   1.270       .  A
C299       C1734   1.472       .  S
C299        O301   1.269       .  A
C300       C2214   1.478       .  S
C302       C1905   1.492       .  S
C303        C304   1.410       .  A
C303        C308   1.412       .  A
C303       C1705   1.491       .  S
C304        C305   1.404       .  A
C304        H309   1.084       .  S
C305        C306   1.400       .  A
C305       C1774   1.483       .  S
C306        C307   1.401       .  A
C306        H310   1.084       .  S
C307        C308   1.407       .  A
C307       C1694   1.485       .  S
C308        H311   1.083       .  S
C312        C313   1.410       .  A
C312        C317   1.408       .  A
C312       C1754   1.487       .  S
C313        C314   1.405       .  A
C313        H318   1.084       .  S
C314        C315   1.400       .  A
C314       C1674   1.482       .  S
C315        C316   1.398       .  A
C315        H319   1.084       .  S
C316        C317   1.401       .  A
C316       C1645   1.474       .  S
C317        H320   1.083       .  S
Fe321       O337   2.060       .  S
Fe321       O327   2.046       .  S
Fe321       O334   2.047       .  S
Fe321       O326   2.062       .  S
Fe321       O332   1.976       .  S
Fe322       O325   2.053       .  S
Fe322       O329   2.083       .  S
Fe322       O333   2.068       .  S
Fe322       O338   2.074       .  S
Fe322       O332   1.977       .  S
Fe323       O341   2.062       .  S
Fe323       O328   2.062       .  S
Fe323       O335   2.074       .  S
Fe323       O324   2.077       .  S
Fe323       O332   1.978       .  S
O324        C331   1.271       .  A
O325        C339   1.268       .  A
O326        C331   1.269       .  A
O327        C330   1.265       .  A
O328        C340   1.271       .  A
O329        C342   1.273       .  A
C330       C1665   1.486       .  S
C330        O335   1.268       .  A
C331       C1605   1.489       .  S
O333        C336   1.268       .  A
O334        C336   1.264       .  A
C336       C1634   1.481       .  S
O337        C342   1.269       .  A
O338        C340   1.273       .  A
C339       C2254   1.483       .  S
C339        O341   1.268       .  A
C340       C1585   1.490       .  S
C342       C1714   1.491       .  S
C343        C344   1.408       .  A
C343        C348   1.406       .  A
C343       C1814   1.483       .  S
C344        C345   1.403       .  A
C344        H349   1.084       .  S
C345        C346   1.401       .  A
C345       C1565   1.481       .  S
C346        C347   1.402       .  A
C346        H350   1.084       .  S
C347        C348   1.404       .  A
C347       C1545   1.484       .  S
C348        H351   1.083       .  S
C352        C353   1.411       .  A
C352        C357   1.410       .  A
C352       C1534   1.488       .  S
C353        C354   1.406   1_655  A
C353        H358   1.083       .  S
C354        C355   1.400       .  A
C354       C1505   1.483       .  S
C355        C356   1.398   1_455  A
C355        H359   1.084       .  S
C356        C357   1.402       .  A
C356       C1825   1.480       .  S
C357        H360   1.083       .  S
C361        C362   1.410       .  A
C361        C366   1.405       .  A
C361       C1474   1.482       .  S
C362        C363   1.408       .  A
C362        H367   1.084       .  S
C363        C364   1.401       .  A
C363       C1485   1.481       .  S
C364        C365   1.398       .  A
C364        H368   1.084       .  S
C365        C366   1.400       .  A
C365       C2714   1.472       .  S
C366        H369   1.084       .  S
C370        C371   1.409       .  A
C370        C375   1.409       .  A
C370       C1454   1.489       .  S
C371        C372   1.401       .  A
C371        H376   1.084       .  S
C372        C373   1.399       .  A
C372       C2314   1.476       .  S
C373        C374   1.405       .  A
C373        H377   1.084       .  S
C374        C375   1.407       .  A
C374       C1425   1.489       .  S
C375        H378   1.082       .  S
Fe379       O395   2.044       .  S
Fe379       O385   2.060       .  S
Fe379       O392   2.062       .  S
Fe379       O384   2.049       .  S
Fe379       O390   1.975       .  S
Fe380       O383   2.078       .  S
Fe380       O387   2.074   1_565  S
Fe380       O391   2.082       .  S
Fe380       O396   2.055       .  S
Fe380       O390   1.978   1_565  S
Fe381       O399   2.061   1_545  S
Fe381       O386   2.067   1_545  S
Fe381       O393   2.075       .  S
Fe381       O382   2.070       .  S
Fe381       O390   1.976       .  S
O382        C389   1.266       .  A
O383        C397   1.272       .  A
O384        C389   1.263       .  A
O385        C388   1.271       .  A
O386        C398   1.271       .  A
O387        C400   1.267       .  A
C388       C1525   1.487       .  S
C388        O393   1.273       .  A
C389       C1434   1.485       .  S
O391        C394   1.274       .  A
O392        C394   1.271   1_545  A
C394       C1465   1.487       .  S
O395        C400   1.262       .  A
O396        C398   1.268       .  A
C397       C2045   1.491       .  S
C397        O399   1.268       .  A
C398       C1405   1.482       .  S
C400       C1574   1.487       .  S
Fe401       O417   2.075       .  S
Fe401       O407   2.043       .  S
Fe401       O414   2.048       .  S
Fe401       O406   2.072   1_545  S
Fe401       O412   1.980       .  S
Fe402       O405   2.050       .  S
Fe402       O409   2.063       .  S
Fe402       O413   2.060       .  S
Fe402       O418   2.064       .  S
Fe402       O412   1.968       .  S
Fe403       O421   2.080       .  S
Fe403       O408   2.062       .  S
Fe403       O415   2.073       .  S
Fe403       O404   2.074       .  S
Fe403       O412   1.972       .  S
O404        C411   1.274   1_545  A
O405        C419   1.266       .  A
O406        C411   1.274       .  A
O407        C410   1.262       .  A
O408        C420   1.269       .  A
O409        C422   1.272       .  A
C410       C1494   1.487       .  S
C410        O415   1.267       .  A
C411       C1365   1.481       .  S
O413        C416   1.264       .  A
O414        C416   1.262       .  A
C416       C1385   1.475       .  S
O417        C422   1.272       .  A
O418        C420   1.270       .  A
C419       C1354   1.485       .  S
C419        O421   1.273       .  A
C420       C2374   1.483       .  S
C422       C1445   1.472       .  S
C423        C424   1.407       .  A
C423        C428   1.410       .  A
C423       C1374   1.485       .  S
C424        C425   1.405   1_455  A
C424        H429   1.083       .  S
C425        C426   1.402       .  A
C425       C1305   1.486       .  S
C426        C427   1.401   1_655  A
C426        H430   1.084       .  S
C427        C428   1.406       .  A
C427       C1325   1.485       .  S
C428        H431   1.083       .  S
C432        C433   1.412       .  A
C432        C437   1.407       .  A
C432       C1285   1.489       .  S
C433        C434   1.413       .  A
C433        H438   1.082       .  S
C434        C435   1.404       .  A
C434       C1274   1.497       .  S
C435        C436   1.398       .  A
C435        H439   1.083       .  S
C436        C437   1.399       .  A
C436       C1394   1.481       .  S
C437        H440   1.084       .  S
C441        C442   1.408   1_655  A
C441        C446   1.408       .  A
C441       C1614   1.487       .  S
C442        C443   1.406       .  A
C442        H447   1.083       .  S
C443        C444   1.403       .  A
C443       C2514   1.487       .  S
C444        C445   1.402       .  A
C444        H448   1.084       .  S
C445        C446   1.404   1_455  A
C445       C1254   1.486       .  S
C446        H449   1.083       .  S
C450        C451   1.404       .  A
C450        C455   1.407       .  A
C450       C1225   1.482       .  S
C451        C452   1.403       .  A
C451        H456   1.084       .  S
C452        C453   1.401       .  A
C452       C2425   1.479       .  S
C453        C454   1.402       .  A
C453        H457   1.083       .  S
C454        C455   1.405       .  A
C454       C1625   1.485       .  S
C455        H458   1.083       .  S
Fe459       O475   2.071   1_455  S
Fe459       O465   2.057       .  S
Fe459       O472   2.052   1_455  S
Fe459       O464   2.068       .  S
Fe459       O470   1.959       .  S
Fe460       O463   2.077   1_655  S
Fe460       O467   2.067       .  S
Fe460       O471   2.084       .  S
Fe460       O476   2.060       .  S
Fe460       O470   1.963   1_655  S
Fe461       O479   2.056       .  S
Fe461       O466   2.073       .  S
Fe461       O473   2.087       .  S
Fe461       O462   2.066       .  S
Fe461       O470   1.962       .  S
O462        C469   1.269       .  A
O463        C477   1.273       .  A
O464        C469   1.270       .  A
O465        C468   1.269       .  A
O466        C478   1.271   1_455  A
O467        C480   1.269       .  A
C468       C1294   1.489       .  S
C468        O473   1.273       .  A
C469       C1245   1.487       .  S
O471        C474   1.272       .  A
O472        C474   1.268       .  A
C474       C1234   1.488       .  S
O475        C480   1.270       .  A
O476        C478   1.268       .  A
C477       C2325   1.485       .  S
C477        O479   1.269       .  A
C478       C1205   1.472       .  S
C480       C1334   1.489   1_655  S
C481        C482   1.412       .  A
C481        C486   1.410       .  A
C481       C1165   1.495       .  S
C482        C483   1.407       .  A
C482        H487   1.083       .  S
C483        C484   1.404       .  A
C483       C1185   1.492       .  S
C484        C485   1.404       .  A
C484        H488   1.084       .  S
C485        C486   1.406       .  A
C485       C1785   1.491       .  S
C486        H489   1.083       .  S
C490        C491   1.406       .  A
C490        C495   1.410   1_565  A
C490       C1154   1.483       .  S
C491        C492   1.396   1_565  A
C491        H496   1.084       .  S
C492        C493   1.395       .  A
C492       C1134   1.471       .  S
C493        C494   1.402       .  A
C493        H497   1.084       .  S
C494        C495   1.407       .  A
C494       C1725   1.487       .  S
C495        H498   1.082       .  S
Fe499       O515   2.071       .  S
Fe499       O505   2.042       .  S
Fe499       O512   2.037       .  S
Fe499       O504   2.068   1_545  S
Fe499       O510   1.978       .  S
Fe500       O503   2.053       .  S
Fe500       O507   2.071       .  S
Fe500       O511   2.067       .  S
Fe500       O516   2.069       .  S
Fe500       O510   1.976       .  S
Fe501       O519   2.072       .  S
Fe501       O506   2.058   1_545  S
Fe501       O513   2.073       .  S
Fe501       O502   2.079   1_545  S
Fe501       O510   1.976       .  S
O502        C509   1.272       .  A
O503        C517   1.267       .  A
O504        C509   1.271       .  A
O505        C508   1.263       .  A
O506        C518   1.269   1_565  A
O507        C520   1.272       .  A
C508       C1105   1.485       .  S
C508        O513   1.268       .  A
C509       C1174   1.494       .  S
O511        C514   1.266       .  A
O512        C514   1.262       .  A
C514       C1125   1.480       .  S
O515        C520   1.271       .  A
O516        C518   1.272       .  A
C517       C1554   1.485       .  S
C517        O519   1.271       .  A
C518       C2014   1.485   1_545  S
C520       C1085   1.481       .  S
C521        C522   1.409   1_565  A
C521        C526   1.411       .  A
C521       C1054   1.493       .  S
C522        C523   1.403       .  A
C522        H527   1.083       .  S
C523        C524   1.399       .  A
C523       C2294   1.480       .  S
C524        C525   1.400       .  A
C524        H528   1.084       .  S
C525        C526   1.405   1_545  A
C525       C1074   1.485       .  S
C526        H529   1.083       .  S
C530        C531   1.410       .  A
C530        C535   1.413       .  A
C530       C1025   1.495       .  S
C531        C532   1.403       .  A
C531        H536   1.083       .  S
C532        C533   1.399       .  A
C532       C1005   1.485       .  S
C533        C534   1.402       .  A
C533        H537   1.084       .  S
C534        C535   1.410       .  A
C534       C2414   1.491       .  S
C535        H538   1.082       .  S
C539        C540   1.412       .  A
C539        C544   1.409       .  A
C539        C965   1.492       .  S
C540        C541   1.407       .  A
C540        H545   1.083       .  S
C541        C542   1.399       .  A
C541        C994   1.483       .  S
C542        C543   1.401       .  A
C542        H546   1.084       .  S
C543        C544   1.404       .  A
C543       C2494   1.480       .  S
C544        H547   1.084       .  S
C548        C549   1.404       .  A
C548        C553   1.406       .  A
C548        C945   1.477       .  S
C549        C550   1.402       .  A
C549        H554   1.084       .  S
C550        C551   1.402       .  A
C550       C2145   1.481       .  S
C551        C552   1.401       .  A
C551        H555   1.084       .  S
C552        C553   1.404       .  A
C552        C925   1.482       .  S
C553        H556   1.083       .  S
C557        C558   1.414       .  A
C557        C562   1.418       .  A
C557        C885   1.506       .  S
C558        C559   1.403       .  A
C558        H563   1.082       .  S
C559        C560   1.394       .  A
C559       C1594   1.478   1_545  S
C560        C561   1.399       .  A
C560        H564   1.085       .  S
C561        C562   1.411       .  A
C561        C905   1.488       .  S
C562        H565   1.082       .  S
C566        C567   1.409       .  A
C566        C571   1.413       .  A
C566        C874   1.488       .  S
C567        C568   1.400       .  A
C567        H572   1.084       .  S
C568        C569   1.396       .  A
C568        C854   1.478       .  S
C569        C570   1.401       .  A
C569        H573   1.084       .  S
C570        C571   1.409       .  A
C570       C1214   1.491       .  S
C571        H574   1.082       .  S
Fe575       O591   2.060   1_655  S
Fe575       O581   2.037       .  S
Fe575       O588   2.040       .  S
Fe575       O580   2.064       .  S
Fe575       O586   1.977   1_655  S
Fe576       O579   2.058       .  S
Fe576       O583   2.087       .  S
Fe576       O587   2.073       .  S
Fe576       O592   2.077       .  S
Fe576       O586   1.981       .  S
Fe577       O595   2.082       .  S
Fe577       O582   2.057       .  S
Fe577       O589   2.084       .  S
Fe577       O578   2.089   1_455  S
Fe577       O586   1.978       .  S
O578        C585   1.275       .  A
O579        C593   1.268       .  A
O580        C585   1.270       .  A
O581        C584   1.261       .  A
O582        C594   1.268       .  A
O583        C596   1.274       .  A
C584        C934   1.486       .  S
C584        O589   1.269   1_655  A
C585        C894   1.488       .  S
O587        C590   1.268       .  A
O588        C590   1.262   1_655  A
C590        C845   1.485   1_455  S
O591        C596   1.270       .  A
O592        C594   1.272       .  A
C593       C1685   1.491       .  S
C593        O595   1.275       .  A
C594       C2634   1.487       .  S
C596        C974   1.493       .  S
Fe597       O613   2.074       .  S
Fe597       O603   2.057       .  S
Fe597       O610   2.059   1_545  S
Fe597       O602   2.073       .  S
Fe597       O608   1.973       .  S
Fe598       O601   2.079       .  S
Fe598       O605   2.063       .  S
Fe598       O609   2.084   1_545  S
Fe598       O614   2.063   1_545  S
Fe598       O608   1.968       .  S
Fe599       O617   2.056       .  S
Fe599       O604   2.074       .  S
Fe599       O611   2.075       .  S
Fe599       O600   2.067       .  S
Fe599       O608   1.970       .  S
O600        C607   1.272       .  A
O601        C615   1.274       .  A
O602        C607   1.272       .  A
O603        C606   1.267       .  A
O604        C616   1.270       .  A
O605        C618   1.268       .  A
C606        C865   1.489       .  S
C606        O611   1.269       .  A
C607       C1065   1.489       .  S
O609        C612   1.272       .  A
O610        C612   1.269       .  A
C612       C1034   1.494       .  S
O613        C618   1.270       .  A
O614        C616   1.267   1_565  A
C615       C2565   1.483       .  S
C615        O617   1.270       .  A
C616       C1265   1.475   1_545  S
C618        C914   1.488       .  S
Fe619       O635   2.079       .  S
Fe619       O625   2.040       .  S
Fe619       O632   2.042       .  S
Fe619       O624   2.083       .  S
Fe619       O630   1.951   1_455  S
Fe620       O623   2.087       .  S
Fe620       O627   2.067       .  S
Fe620       O631   2.094       .  S
Fe620       O636   2.058       .  S
Fe620       O630   1.954       .  S
Fe621       O639   2.045       .  S
Fe621       O626   2.076       .  S
Fe621       O633   2.085   1_655  S
Fe621       O622   2.060       .  S
Fe621       O630   1.951       .  S
O622        C629   1.268   1_655  A
O623        C637   1.275       .  A
O624        C629   1.272       .  A
O625        C628   1.267       .  A
O626        C638   1.272       .  A
O627        C640   1.269   1_655  A
C628       C1145   1.482       .  S
C628        O633   1.273       .  A
C629        C985   1.486       .  S
O631        C634   1.276       .  A
O632        C634   1.268   1_455  A
C634        C954   1.486       .  S
O635        C640   1.271       .  A
O636        C638   1.269       .  A
C637       C1974   1.483       .  S
C637        O639   1.268       .  A
C638       C1654   1.478       .  S
C640       C1194   1.493       .  S
C641        C642   1.410       .  A
C641        C646   1.407       .  A
C641        C805   1.480       .  S
C642        C643   1.407       .  A
C642        H647   1.083       .  S
C643        C644   1.400       .  A
C643       C1345   1.487       .  S
C644        C645   1.398       .  A
C644        H648   1.084       .  S
C645        C646   1.401       .  A
C645        C834   1.478       .  S
C646        H649   1.084       .  S
C650        C651   1.413       .  A
C650        C655   1.410       .  A
C650        C785   1.491       .  S
C651        C652   1.404       .  A
C651        H656   1.083       .  S
C652        C653   1.397       .  A
C652        C774   1.480       .  S
C653        C654   1.396       .  A
C653        H657   1.085       .  S
C654        C655   1.401       .  A
C654       C1414   1.471       .  S
C655        H658   1.083       .  S
Fe659       O675   2.063       .  S
Fe659       O665   2.044       .  S
Fe659       O672   2.045       .  S
Fe659       O664   2.061       .  S
Fe659       O670   1.972       .  S
Fe660       O663   2.060       .  S
Fe660       O667   2.072       .  S
Fe660       O671   2.076       .  S
Fe660       O676   2.067       .  S
Fe660       O670   1.972       .  S
Fe661       O679   2.070       .  S
Fe661       O666   2.064       .  S
Fe661       O673   2.077       .  S
Fe661       O662   2.076       .  S
Fe661       O670   1.977       .  S
O662        C669   1.273       .  A
O663        C677   1.268       .  A
O664        C669   1.270       .  A
O665        C668   1.263       .  A
O666        C678   1.270       .  A
O667        C680   1.272       .  A
C668        C765   1.488       .  S
C668        O673   1.268       .  A
C669       C1045   1.490       .  S
O671        C674   1.268       .  A
O672        C674   1.262       .  A
C674       C1014   1.488       .  S
O675        C680   1.270       .  A
O676        C678   1.271       .  A
C677       C2774   1.487       .  S
C677        O679   1.271       .  A
C678       C1314   1.485       .  S
C680        C814   1.482       .  S
C681        C682   1.409       .  A
C681        C686   1.412       .  A
C681       C1094   1.497       .  S
C682        C683   1.403       .  A
C682        H687   1.082       .  S
C683        C684   1.399       .  A
C683       C1934   1.482       .  S
C684        C685   1.403       .  A
C684        H688   1.084       .  S
C685        C686   1.407       .  A
C685        C745   1.486       .  S
C686        H689   1.083       .  S
C690        C691   1.405       .  A
C690        C695   1.410       .  A
C690        C725   1.482       .  S
C691        C692   1.400       .  A
C691        H696   1.084       .  S
C692        C693   1.398       .  A
C692       C1114   1.477       .  S
C693        C694   1.404       .  A
C693        H697   1.083       .  S
C694        C695   1.412       .  A
C694       C2694   1.494   1_545  S
C695        H698   1.083       .  S
Fe699       O715   2.049       .  S
Fe699       O705   2.056       .  S
Fe699       O712   2.055       .  S
Fe699       O704   2.047       .  S
Fe699       O710   1.976       .  S
Fe700       O703   2.075       .  S
Fe700       O707   2.076       .  S
Fe700       O711   2.082       .  S
Fe700       O716   2.055       .  S
Fe700       O710   1.977       .  S
Fe701       O719   2.052       .  S
Fe701       O706   2.088       .  S
Fe701       O713   2.095       .  S
Fe701       O702   2.066       .  S
Fe701       O710   1.978       .  S
O702        C709   1.265       .  A
O703        C717   1.271       .  A
O704        C709   1.263       .  A
O705        C708   1.269       .  A
O706        C718   1.276       .  A
O707        C720   1.269       .  A
C708        C734   1.495       .  S
C708        O713   1.277       .  A
C709        C825   1.485       .  S
O711        C714   1.272       .  A
O712        C714   1.269       .  A
C714        C794   1.490       .  S
O715        C720   1.265       .  A
O716        C718   1.269       .  A
C717       C1514   1.488       .  S
C717        O719   1.266       .  A
C718       C2825   1.491       .  S
C720        C754   1.488       .  S
C721        C722   1.403       .  A
C721        C726   1.399       .  A
C721        H731   1.083       .  S
C722        C723   1.407       .  A
C722        C727   1.483       .  S
C723        C724   1.404       .  A
C723        F728   1.357       .  S
C724        C725   1.405       .  A
C724        H729   1.083       .  S
C725        C726   1.406       .  A
C726        F730   1.358       .  S
C727        C732   1.405       .  A
C727        C736   1.400       .  A
C732        C733   1.403       .  A
C732        F737   1.357       .  S
C733        C734   1.409       .  A
C733        H738   1.083       .  S
C734        C735   1.416       .  A
C735        C736   1.400       .  A
C735        F739   1.358       .  S
C736        H740   1.084       .  S
C741        C742   1.405       .  A
C741        C746   1.402       .  A
C741        H751   1.083       .  S
C742        C743   1.407       .  A
C742        C747   1.484       .  S
C743        C744   1.395       .  A
C743        F748   1.358       .  S
C744        C745   1.405       .  A
C744        H749   1.083       .  S
C745        C746   1.409       .  A
C746        F750   1.357       .  S
C747        C752   1.404       .  A
C747        C756   1.405       .  A
C752        C753   1.394       .  A
C752        F757   1.358       .  S
C753        C754   1.409       .  A
C753        H758   1.083       .  S
C754        C755   1.410       .  A
C755        C756   1.403       .  A
C755        F759   1.357       .  S
C756        H760   1.083       .  S
C761        C762   1.400       .  A
C761        C766   1.393       .  A
C761        H771   1.084       .  S
C762        C763   1.406       .  A
C762        C767   1.480       .  S
C763        C764   1.403       .  A
C763        F768   1.357       .  S
C764        C765   1.409       .  A
C764        H769   1.083       .  S
C765        C766   1.413       .  A
C766        F770   1.358       .  S
C767        C772   1.405       .  A
C767        C776   1.406       .  A
C772        C773   1.393       .  A
C772        F777   1.358       .  S
C773        C774   1.403       .  A
C773        H778   1.084       .  S
C774        C775   1.407       .  A
C775        C776   1.404       .  A
C775        F779   1.357       .  S
C776        H780   1.083       .  S
C781        C782   1.402       .  A
C781        C786   1.401       .  A
C781        H791   1.083       .  S
C782        C783   1.406       .  A
C782        C787   1.482       .  S
C783        C784   1.397       .  A
C783        F788   1.358       .  S
C784        C785   1.406       .  A
C784        H789   1.083       .  S
C785        C786   1.413       .  A
C786        F790   1.357       .  S
C787        C792   1.404       .  A
C787        C796   1.404       .  A
C792        C793   1.397       .  A
C792        F797   1.358       .  S
C793        C794   1.409       .  A
C793        H798   1.083       .  S
C794        C795   1.412       .  A
C795        C796   1.402       .  A
C795        F799   1.357       .  S
C796        H800   1.083       .  S
C801        C802   1.404       .  A
C801        C806   1.400       .  A
C801        H811   1.083       .  S
C802        C803   1.406       .  A
C802        C807   1.480       .  S
C803        C804   1.398       .  A
C803        F808   1.358       .  S
C804        C805   1.404       .  A
C804        H809   1.083       .  S
C805        C806   1.406       .  A
C806        F810   1.357       .  S
C807        C812   1.405       .  A
C807        C816   1.402       .  A
C812        C813   1.399       .  A
C812        F817   1.358       .  S
C813        C814   1.407       .  A
C813        H818   1.083       .  S
C814        C815   1.409       .  A
C815        C816   1.399       .  A
C815        F819   1.357       .  S
C816        H820   1.083       .  S
C821        C822   1.403       .  A
C821        C826   1.400       .  A
C821        H831   1.083       .  S
C822        C823   1.403       .  A
C822        C827   1.478       .  S
C823        C824   1.394       .  A
C823        F828   1.358       .  S
C824        C825   1.408       .  A
C824        H829   1.083       .  S
C825        C826   1.411       .  A
C826        F830   1.357       .  S
C827        C832   1.404       .  A
C827        C836   1.406       .  A
C832        C833   1.391       .  A
C832        F837   1.358       .  S
C833        C834   1.404       .  A
C833        H838   1.084       .  S
C834        C835   1.406       .  A
C835        C836   1.402       .  A
C835        F839   1.357       .  S
C836        H840   1.083       .  S
C841        C842   1.400       .  A
C841        C846   1.391       .  A
C841        H851   1.084       .  S
C842        C843   1.406       .  A
C842        C847   1.479       .  S
C843        C844   1.401   1_655  A
C843        F848   1.357   1_655  S
C844        C845   1.408   1_455  A
C844        H849   1.083       .  S
C845        C846   1.412       .  A
C846        F850   1.358       .  S
C847        C852   1.406       .  A
C847        C856   1.405       .  A
C852        C853   1.392       .  A
C852        F857   1.358       .  S
C853        C854   1.403       .  A
C853        H858   1.084       .  S
C854        C855   1.407       .  A
C855        C856   1.401       .  A
C855        F859   1.357       .  S
C856        H860   1.083       .  S
C861        C862   1.401       .  A
C861        C866   1.400       .  A
C861        H871   1.083       .  S
C862        C863   1.403       .  A
C862        C867   1.477       .  S
C863        C864   1.398       .  A
C863        F868   1.358       .  S
C864        C865   1.409       .  A
C864        H869   1.083       .  S
C865        C866   1.413       .  A
C866        F870   1.357       .  S
C867        C872   1.403       .  A
C867        C876   1.402       .  A
C872        C873   1.396       .  A
C872        F877   1.358       .  S
C873        C874   1.407       .  A
C873        H878   1.083       .  S
C874        C875   1.410       .  A
C875        C876   1.402       .  A
C875        F879   1.357       .  S
C876        H880   1.083       .  S
C881        C882   1.407       .  A
C881        C886   1.402       .  A
C881        H891   1.082       .  S
C882        C883   1.412       .  A
C882        C887   1.504       .  S
C883        C884   1.403       .  A
C883        F888   1.357       .  S
C884        C885   1.409       .  A
C884        H889   1.082       .  S
C885        C886   1.414       .  A
C886        F890   1.357       .  S
C887        C892   1.414       .  A
C887        C896   1.409       .  A
C892        C893   1.404       .  A
C892        F897   1.357       .  S
C893        C894   1.405       .  A
C893        H898   1.084       .  S
C894        C895   1.407       .  A
C895        C896   1.402       .  A
C895        F899   1.357       .  S
C896        H900   1.082       .  S
C901        C902   1.408       .  A
C901        C906   1.402       .  A
C901        H911   1.083       .  S
C902        C903   1.407       .  A
C902        C907   1.490       .  S
C903        C904   1.397       .  A
C903        F908   1.358       .  S
C904        C905   1.407       .  A
C904        H909   1.083       .  S
C905        C906   1.406       .  A
C906        F910   1.357       .  S
C907        C912   1.408       .  A
C907        C916   1.405       .  A
C912        C913   1.400       .  A
C912        F917   1.357       .  S
C913        C914   1.406       .  A
C913        H918   1.083       .  S
C914        C915   1.411       .  A
C915        C916   1.400       .  A
C915        F919   1.358       .  S
C916        H920   1.083       .  S
C921        C922   1.403       .  A
C921        C926   1.401       .  A
C921        H931   1.083   1_655  S
C922        C923   1.404       .  A
C922        C927   1.476   1_556  S
C923        C924   1.394       .  A
C923        F928   1.358   1_556  S
C924        C925   1.405       .  A
C924        H929   1.084       .  S
C925        C926   1.408       .  A
C926        F930   1.357       .  S
C927        C932   1.405       .  A
C927        C936   1.398       .  A
C932        C933   1.403       .  A
C932        F937   1.357   1_554  S
C933        C934   1.408       .  A
C933        H938   1.083   1_655  S
C934        C935   1.414       .  A
C935        C936   1.393       .  A
C935        F939   1.358       .  S
C936        H940   1.084       .  S
C941        C942   1.406       .  A
C941        C946   1.397       .  A
C941        H951   1.083       .  S
C942        C943   1.408       .  A
C942        C947   1.484       .  S
C943        C944   1.398       .  A
C943        F948   1.357       .  S
C944        C945   1.403       .  A
C944        H949   1.083       .  S
C945        C946   1.404       .  A
C946        F950   1.358       .  S
C947        C952   1.405       .  A
C947        C956   1.406       .  A
C952        C953   1.394       .  A
C952        F957   1.358       .  S
C953        C954   1.408       .  A
C953        H958   1.083   1_655  S
C954        C955   1.410       .  A
C955        C956   1.401       .  A
C955        F959   1.357       .  S
C956        H960   1.083       .  S
C961        C962   1.404       .  A
C961        C966   1.399       .  A
C961        H971   1.083       .  S
C962        C963   1.405       .  A
C962        C967   1.486       .  S
C963        C964   1.402       .  A
C963        F968   1.357       .  S
C964        C965   1.409       .  A
C964        H969   1.083       .  S
C965        C966   1.409       .  A
C966        F970   1.357       .  S
C967        C972   1.404       .  A
C967        C976   1.405       .  A
C972        C973   1.398       .  A
C972        F977   1.358       .  S
C973        C974   1.410       .  A
C973        H978   1.083       .  S
C974        C975   1.412       .  A
C975        C976   1.404       .  A
C975        F979   1.357       .  S
C976        H980   1.083       .  S
C981        C982   1.403       .  A
C981        C986   1.402       .  A
C981        H991   1.083       .  S
C982        C983   1.404       .  A
C982        C987   1.482       .  S
C983        C984   1.397       .  A
C983        F988   1.358       .  S
C984        C985   1.407       .  A
C984        H989   1.083       .  S
C985        C986   1.411       .  A
C986        F990   1.357   1_455  S
C987        C992   1.405       .  A
C987        C996   1.405       .  A
C992        C993   1.401   1_556  A
C992        F997   1.358       .  S
C993        C994   1.407       .  A
C993        H998   1.083       .  S
C994        C995   1.405   1_554  A
C995        C996   1.399       .  A
C995        F999   1.357       .  S
C996       H1000   1.083       .  S
C1001      C1002   1.407       .  A
C1001      C1006   1.401       .  A
C1001      H1011   1.083       .  S
C1002      C1003   1.408       .  A
C1002      C1007   1.487       .  S
C1003      C1004   1.395       .  A
C1003      F1008   1.358       .  S
C1004      C1005   1.405       .  A
C1004      H1009   1.084       .  S
C1005      C1006   1.407       .  A
C1006      F1010   1.357       .  S
C1007      C1012   1.408       .  A
C1007      C1016   1.403       .  A
C1012      C1013   1.402       .  A
C1012      F1017   1.357       .  S
C1013      C1014   1.407       .  A
C1013      H1018   1.083       .  S
C1014      C1015   1.412       .  A
C1015      C1016   1.395       .  A
C1015      F1019   1.358       .  S
C1016      H1020   1.083       .  S
C1021      C1022   1.403       .  A
C1021      C1026   1.404       .  A
C1021      H1031   1.083       .  S
C1022      C1023   1.404       .  A
C1022      C1027   1.482       .  S
C1023      C1024   1.398       .  A
C1023      F1028   1.358       .  S
C1024      C1025   1.408       .  A
C1024      H1029   1.083       .  S
C1025      C1026   1.412       .  A
C1026      F1030   1.357       .  S
C1027      C1032   1.403       .  A
C1027      C1036   1.402       .  A
C1032      C1033   1.399       .  A
C1032      F1037   1.358       .  S
C1033      C1034   1.410       .  A
C1033      H1038   1.083       .  S
C1034      C1035   1.413       .  A
C1035      C1036   1.403       .  A
C1035      F1039   1.357       .  S
C1036      H1040   1.083       .  S
C1041      C1042   1.400       .  A
C1041      C1046   1.398       .  A
C1041      H1051   1.083       .  S
C1042      C1043   1.404       .  A
C1042      C1047   1.480       .  S
C1043      C1044   1.401       .  A
C1043      F1048   1.357       .  S
C1044      C1045   1.409       .  A
C1044      H1049   1.083       .  S
C1045      C1046   1.414       .  A
C1046      F1050   1.358       .  S
C1047      C1052   1.404       .  A
C1047      C1056   1.402       .  A
C1052      C1053   1.398       .  A
C1052      F1057   1.358       .  S
C1053      C1054   1.408       .  A
C1053      H1058   1.082       .  S
C1054      C1055   1.412       .  A
C1055      C1056   1.400       .  A
C1055      F1059   1.357       .  S
C1056      H1060   1.083       .  S
C1061      C1062   1.404       .  A
C1061      C1066   1.398       .  A
C1061      H1071   1.083       .  S
C1062      C1063   1.407       .  A
C1062      C1067   1.487       .  S
C1063      C1064   1.399       .  A
C1063      F1068   1.357       .  S
C1064      C1065   1.407       .  A
C1064      H1069   1.083       .  S
C1065      C1066   1.412       .  A
C1066      F1070   1.358       .  S
C1067      C1072   1.409       .  A
C1067      C1076   1.404       .  A
C1072      C1073   1.400   1_545  A
C1072      F1077   1.357   1_545  S
C1073      C1074   1.404   1_565  A
C1073      H1078   1.083       .  S
C1074      C1075   1.409       .  A
C1075      C1076   1.397       .  A
C1075      F1079   1.358       .  S
C1076      H1080   1.083       .  S
C1081      C1082   1.409       .  A
C1081      C1086   1.403       .  A
C1081      H1091   1.082       .  S
C1082      C1083   1.411       .  A
C1082      C1087   1.496       .  S
C1083      C1084   1.396       .  A
C1083      F1088   1.357       .  S
C1084      C1085   1.403       .  A
C1084      H1089   1.084       .  S
C1085      C1086   1.407       .  A
C1086      F1090   1.357       .  S
C1087      C1092   1.410       .  A
C1087      C1096   1.406       .  A
C1092      C1093   1.402       .  A
C1092      F1097   1.357       .  S
C1093      C1094   1.408       .  A
C1093      H1098   1.083       .  S
C1094      C1095   1.411       .  A
C1095      C1096   1.397       .  A
C1095      F1099   1.357       .  S
C1096      H1100   1.083       .  S
C1101      C1102   1.405       .  A
C1101      C1106   1.401       .  A
C1101      H1111   1.083       .  S
C1102      C1103   1.403       .  A
C1102      C1107   1.481       .  S
C1103      C1104   1.394       .  A
C1103      F1108   1.358       .  S
C1104      C1105   1.409       .  A
C1104      H1109   1.083       .  S
C1105      C1106   1.410       .  A
C1106      F1110   1.357       .  S
C1107      C1112   1.407       .  A
C1107      C1116   1.404       .  A
C1112      C1113   1.400       .  A
C1112      F1117   1.357       .  S
C1113      C1114   1.404       .  A
C1113      H1118   1.083       .  S
C1114      C1115   1.404       .  A
C1115      C1116   1.394       .  A
C1115      F1119   1.358       .  S
C1116      H1120   1.083       .  S
C1121      C1122   1.403       .  A
C1121      C1126   1.399       .  A
C1121      H1131   1.083       .  S
C1122      C1123   1.401       .  A
C1122      C1127   1.472       .  S
C1123      C1124   1.391       .  A
C1123      F1128   1.358   1_545  S
C1124      C1125   1.408       .  A
C1124      H1129   1.083       .  S
C1125      C1126   1.410       .  A
C1126      F1130   1.357       .  S
C1127      C1132   1.405       .  A
C1127      C1136   1.402       .  A
C1132      C1133   1.399       .  A
C1132      F1137   1.357   1_545  S
C1133      C1134   1.403       .  A
C1133      H1138   1.083   1_545  S
C1134      C1135   1.404       .  A
C1135      C1136   1.392       .  A
C1135      F1139   1.358       .  S
C1136      H1140   1.083       .  S
C1141      C1142   1.400       .  A
C1141      C1146   1.399       .  A
C1141      H1151   1.083       .  S
C1142      C1143   1.401       .  A
C1142      C1147   1.469       .  S
C1143      C1144   1.394       .  A
C1143      F1148   1.358       .  S
C1144      C1145   1.408       .  A
C1144      H1149   1.083       .  S
C1145      C1146   1.412       .  A
C1146      F1150   1.357       .  S
C1147      C1152   1.402       .  A
C1147      C1156   1.401       .  A
C1152      C1153   1.394       .  A
C1152      F1157   1.358       .  S
C1153      C1154   1.407       .  A
C1153      H1158   1.083       .  S
C1154      C1155   1.409       .  A
C1155      C1156   1.399       .  A
C1155      F1159   1.357       .  S
C1156      H1160   1.083       .  S
C1161      C1162   1.404       .  A
C1161      C1166   1.402       .  A
C1161      H1171   1.083       .  S
C1162      C1163   1.403       .  A
C1162      C1167   1.484       .  S
C1163      C1164   1.401       .  A
C1163      F1168   1.357       .  S
C1164      C1165   1.409       .  A
C1164      H1169   1.083       .  S
C1165      C1166   1.411       .  A
C1166      F1170   1.357       .  S
C1167      C1172   1.403       .  A
C1167      C1176   1.403       .  A
C1172      C1173   1.400       .  A
C1172      F1177   1.357       .  S
C1173      C1174   1.410       .  A
C1173      H1178   1.083       .  S
C1174      C1175   1.413       .  A
C1175      C1176   1.404       .  A
C1175      F1179   1.357       .  S
C1176      H1180   1.083       .  S
C1181      C1182   1.405       .  A
C1181      C1186   1.399       .  A
C1181      H1191   1.083       .  S
C1182      C1183   1.410       .  A
C1182      C1187   1.492       .  S
C1183      C1184   1.402       .  A
C1183      F1188   1.357       .  S
C1184      C1185   1.405       .  A
C1184      H1189   1.083       .  S
C1185      C1186   1.410       .  A
C1186      F1190   1.358       .  S
C1187      C1192   1.409       .  A
C1187      C1196   1.404       .  A
C1192      C1193   1.402       .  A
C1192      F1197   1.357       .  S
C1193      C1194   1.409       .  A
C1193      H1198   1.083   1_455  S
C1194      C1195   1.412       .  A
C1195      C1196   1.399       .  A
C1195      F1199   1.357       .  S
C1196      H1200   1.083       .  S
C1201      C1202   1.405       .  A
C1201      C1206   1.391       .  A
C1201      H1211   1.083       .  S
C1202      C1203   1.410       .  A
C1202      C1207   1.487       .  S
C1203      C1204   1.403       .  A
C1203      F1208   1.357       .  S
C1204      C1205   1.405       .  A
C1204      H1209   1.083       .  S
C1205      C1206   1.403       .  A
C1206      F1210   1.358   1_655  S
C1207      C1212   1.405       .  A
C1207      C1216   1.408       .  A
C1212      C1213   1.389       .  A
C1212      F1217   1.358       .  S
C1213      C1214   1.407       .  A
C1213      H1218   1.083       .  S
C1214      C1215   1.409       .  A
C1215      C1216   1.404       .  A
C1215      F1219   1.357       .  S
C1216      H1220   1.083       .  S
C1221      C1222   1.405       .  A
C1221      C1226   1.396       .  A
C1221      H1231   1.083       .  S
C1222      C1223   1.408       .  A
C1222      C1227   1.486       .  S
C1223      C1224   1.401       .  A
C1223      F1228   1.357       .  S
C1224      C1225   1.406       .  A
C1224      H1229   1.083       .  S
C1225      C1226   1.405       .  A
C1226      F1230   1.357       .  S
C1227      C1232   1.406       .  A
C1227      C1236   1.406       .  A
C1232      C1233   1.395       .  A
C1232      F1237   1.358       .  S
C1233      C1234   1.407       .  A
C1233      H1238   1.083       .  S
C1234      C1235   1.411       .  A
C1235      C1236   1.403       .  A
C1235      F1239   1.357       .  S
C1236      H1240   1.083       .  S
C1241      C1242   1.403       .  A
C1241      C1246   1.403       .  A
C1241      H1251   1.083       .  S
C1242      C1243   1.403   1_455  A
C1242      C1247   1.478       .  S
C1243      C1244   1.394       .  A
C1243      F1248   1.358       .  S
C1244      C1245   1.407   1_655  A
C1244      H1249   1.083       .  S
C1245      C1246   1.412       .  A
C1246      F1250   1.357       .  S
C1247      C1252   1.403       .  A
C1247      C1256   1.404   1_455  A
C1252      C1253   1.392       .  A
C1252      F1257   1.358       .  S
C1253      C1254   1.405       .  A
C1253      H1258   1.083       .  S
C1254      C1255   1.410   1_455  A
C1255      C1256   1.404       .  A
C1255      F1259   1.357       .  S
C1256      H1260   1.083       .  S
C1261      C1262   1.407   1_545  A
C1261      C1266   1.396       .  A
C1261      H1271   1.083       .  S
C1262      C1263   1.412       .  A
C1262      C1267   1.493       .  S
C1263      C1264   1.403       .  A
C1263      F1268   1.357       .  S
C1264      C1265   1.403       .  A
C1264      H1269   1.083       .  S
C1265      C1266   1.405   1_565  A
C1266      F1270   1.358       .  S
C1267      C1272   1.407       .  A
C1267      C1276   1.409       .  A
C1272      C1273   1.394       .  A
C1272      F1277   1.358   1_565  S
C1273      C1274   1.409       .  A
C1273      H1278   1.083       .  S
C1274      C1275   1.410       .  A
C1275      C1276   1.404       .  A
C1275      F1279   1.357       .  S
C1276      H1280   1.082       .  S
C1281      C1282   1.406       .  A
C1281      C1286   1.404       .  A
C1281      H1291   1.083       .  S
C1282      C1283   1.407       .  A
C1282      C1287   1.488       .  S
C1283      C1284   1.397       .  A
C1283      F1288   1.358       .  S
C1284      C1285   1.406       .  A
C1284      H1289   1.083       .  S
C1285      C1286   1.408       .  A
C1286      F1290   1.357       .  S
C1287      C1292   1.407       .  A
C1287      C1296   1.405       .  A
C1292      C1293   1.397       .  A
C1292      F1297   1.358       .  S
C1293      C1294   1.407       .  A
C1293      H1298   1.083       .  S
C1294      C1295   1.411       .  A
C1295      C1296   1.403       .  A
C1295      F1299   1.357       .  S
C1296      H1300   1.083       .  S
C1301      C1302   1.405       .  A
C1301      C1306   1.401       .  A
C1301      H1311   1.083       .  S
C1302      C1303   1.405       .  A
C1302      C1307   1.482       .  S
C1303      C1304   1.393       .  A
C1303      F1308   1.358       .  S
C1304      C1305   1.405       .  A
C1304      H1309   1.083       .  S
C1305      C1306   1.409       .  A
C1306      F1310   1.357       .  S
C1307      C1312   1.404       .  A
C1307      C1316   1.405       .  A
C1312      C1313   1.397       .  A
C1312      F1317   1.358       .  S
C1313      C1314   1.409       .  A
C1313      H1318   1.083       .  S
C1314      C1315   1.409       .  A
C1315      C1316   1.398       .  A
C1315      F1319   1.357       .  S
C1316      H1320   1.083       .  S
C1321      C1322   1.407       .  A
C1321      C1326   1.402       .  A
C1321      H1331   1.083       .  S
C1322      C1323   1.405       .  A
C1322      C1327   1.485       .  S
C1323      C1324   1.397       .  A
C1323      F1328   1.358   1_455  S
C1324      C1325   1.406       .  A
C1324      H1329   1.083   1_455  S
C1325      C1326   1.406       .  A
C1326      F1330   1.357       .  S
C1327      C1332   1.405       .  A
C1327      C1336   1.404       .  A
C1332      C1333   1.398       .  A
C1332      F1337   1.358       .  S
C1333      C1334   1.408       .  A
C1333      H1338   1.083       .  S
C1334      C1335   1.411       .  A
C1335      C1336   1.401       .  A
C1335      F1339   1.357       .  S
C1336      H1340   1.083       .  S
C1341      C1342   1.406       .  A
C1341      C1346   1.401       .  A
C1341      H1351   1.083       .  S
C1342      C1343   1.402       .  A
C1342      C1347   1.480       .  S
C1343      C1344   1.395       .  A
C1343      F1348   1.357       .  S
C1344      C1345   1.409       .  A
C1344      H1349   1.083       .  S
C1345      C1346   1.407       .  A
C1346      F1350   1.357       .  S
C1347      C1352   1.408       .  A
C1347      C1356   1.399       .  A
C1352      C1353   1.401       .  A
C1352      F1357   1.357       .  S
C1353      C1354   1.405       .  A
C1353      H1358   1.083       .  S
C1354      C1355   1.414       .  A
C1355      C1356   1.396       .  A
C1355      F1359   1.358       .  S
C1356      H1360   1.084       .  S
C1361      C1362   1.403       .  A
C1361      C1366   1.399       .  A
C1361      H1371   1.083       .  S
C1362      C1363   1.405       .  A
C1362      C1367   1.481       .  S
C1363      C1364   1.401       .  A
C1363      F1368   1.357       .  S
C1364      C1365   1.406       .  A
C1364      H1369   1.083       .  S
C1365      C1366   1.409       .  A
C1366      F1370   1.358   1_565  S
C1367      C1372   1.405       .  A
C1367      C1376   1.404       .  A
C1372      C1373   1.401       .  A
C1372      F1377   1.357       .  S
C1373      C1374   1.407       .  A
C1373      H1378   1.083       .  S
C1374      C1375   1.406       .  A
C1375      C1376   1.399       .  A
C1375      F1379   1.357       .  S
C1376      H1380   1.083       .  S
C1381      C1382   1.403   1_545  A
C1381      C1386   1.399       .  A
C1381      H1391   1.083       .  S
C1382      C1383   1.405       .  A
C1382      C1387   1.476       .  S
C1383      C1384   1.394       .  A
C1383      F1388   1.358       .  S
C1384      C1385   1.404   1_565  A
C1384      H1389   1.083       .  S
C1385      C1386   1.408       .  A
C1386      F1390   1.358       .  S
C1387      C1392   1.407       .  A
C1387      C1396   1.401       .  A
C1392      C1393   1.398       .  A
C1392      F1397   1.357       .  S
C1393      C1394   1.404       .  A
C1393      H1398   1.083       .  S
C1394      C1395   1.409       .  A
C1395      C1396   1.395       .  A
C1395      F1399   1.358   1_565  S
C1396      H1400   1.084   1_565  S
C1401      C1402   1.401       .  A
C1401      C1406   1.397       .  A
C1401      H1411   1.083       .  S
C1402      C1403   1.406       .  A
C1402      C1407   1.477       .  S
C1403      C1404   1.395       .  A
C1403      F1408   1.358       .  S
C1404      C1405   1.405       .  A
C1404      H1409   1.083       .  S
C1405      C1406   1.413       .  A
C1406      F1410   1.358       .  S
C1407      C1412   1.406       .  A
C1407      C1416   1.406       .  A
C1412      C1413   1.391       .  A
C1412      F1417   1.358       .  S
C1413      C1414   1.400       .  A
C1413      H1418   1.084       .  S
C1414      C1415   1.405       .  A
C1415      C1416   1.401       .  A
C1415      F1419   1.357       .  S
C1416      H1420   1.083       .  S
C1421      C1422   1.406       .  A
C1421      C1426   1.400       .  A
C1421      H1431   1.083       .  S
C1422      C1423   1.406       .  A
C1422      C1427   1.485       .  S
C1423      C1424   1.397       .  A
C1423      F1428   1.358       .  S
C1424      C1425   1.407       .  A
C1424      H1429   1.083       .  S
C1425      C1426   1.409       .  A
C1426      F1430   1.357       .  S
C1427      C1432   1.406       .  A
C1427      C1436   1.406       .  A
C1432      C1433   1.396       .  A
C1432      F1437   1.358       .  S
C1433      C1434   1.407       .  A
C1433      H1438   1.083       .  S
C1434      C1435   1.409       .  A
C1435      C1436   1.400       .  A
C1435      F1439   1.357       .  S
C1436      H1440   1.083       .  S
C1441      C1442   1.403       .  A
C1441      C1446   1.394       .  A
C1441      H1451   1.083       .  S
C1442      C1443   1.411       .  A
C1442      C1447   1.487       .  S
C1443      C1444   1.404       .  A
C1443      F1448   1.357       .  S
C1444      C1445   1.403       .  A
C1444      H1449   1.083       .  S
C1445      C1446   1.405       .  A
C1446      F1450   1.358       .  S
C1447      C1452   1.408       .  A
C1447      C1456   1.405       .  A
C1452      C1453   1.397       .  A
C1452      F1457   1.358       .  S
C1453      C1454   1.405       .  A
C1453      H1458   1.083       .  S
C1454      C1455   1.410       .  A
C1455      C1456   1.400       .  A
C1455      F1459   1.357       .  S
C1456      H1460   1.083       .  S
C1461      C1462   1.402   1_545  A
C1461      C1466   1.399       .  A
C1461      H1471   1.083       .  S
C1462      C1463   1.405       .  A
C1462      C1467   1.482       .  S
C1463      C1464   1.401       .  A
C1463      F1468   1.358       .  S
C1464      C1465   1.408       .  A
C1464      H1469   1.083       .  S
C1465      C1466   1.411   1_565  A
C1466      F1470   1.357       .  S
C1467      C1472   1.405       .  A
C1467      C1476   1.405       .  A
C1472      C1473   1.399       .  A
C1472      F1477   1.357       .  S
C1473      C1474   1.405       .  A
C1473      H1478   1.083       .  S
C1474      C1475   1.406       .  A
C1475      C1476   1.401       .  A
C1475      F1479   1.357       .  S
C1476      H1480   1.083       .  S
C1481      C1482   1.403       .  A
C1481      C1486   1.396       .  A
C1481      H1491   1.083       .  S
C1482      C1483   1.407       .  A
C1482      C1487   1.480       .  S
C1483      C1484   1.401       .  A
C1483      F1488   1.357   1_565  S
C1484      C1485   1.404       .  A
C1484      H1489   1.083   1_565  S
C1485      C1486   1.408       .  A
C1486      F1490   1.358       .  S
C1487      C1492   1.403       .  A
C1487      C1496   1.404   1_565  A
C1492      C1493   1.395       .  A
C1492      F1497   1.358       .  S
C1493      C1494   1.409   1_565  A
C1493      H1498   1.083       .  S
C1494      C1495   1.410       .  A
C1495      C1496   1.400       .  A
C1495      F1499   1.357       .  S
C1496      H1500   1.083       .  S
C1501      C1502   1.400       .  A
C1501      C1506   1.395       .  A
C1501      H1511   1.083       .  S
C1502      C1503   1.407       .  A
C1502      C1507   1.476       .  S
C1503      C1504   1.401       .  A
C1503      F1508   1.357       .  S
C1504      C1505   1.405       .  A
C1504      H1509   1.083       .  S
C1505      C1506   1.409       .  A
C1506      F1510   1.358       .  S
C1507      C1512   1.405       .  A
C1507      C1516   1.399       .  A
C1512      C1513   1.399       .  A
C1512      F1517   1.358       .  S
C1513      C1514   1.407       .  A
C1513      H1518   1.083       .  S
C1514      C1515   1.414       .  A
C1515      C1516   1.398       .  A
C1515      F1519   1.357       .  S
C1516      H1520   1.083       .  S
C1521      C1522   1.400       .  A
C1521      C1526   1.397       .  A
C1521      H1531   1.084       .  S
C1522      C1523   1.404       .  A
C1522      C1527   1.478       .  S
C1523      C1524   1.401       .  A
C1523      F1528   1.357       .  S
C1524      C1525   1.409       .  A
C1524      H1529   1.083       .  S
C1525      C1526   1.413       .  A
C1526      F1530   1.357       .  S
C1527      C1532   1.404       .  A
C1527      C1536   1.402       .  A
C1532      C1533   1.401       .  A
C1532      F1537   1.357       .  S
C1533      C1534   1.407       .  A
C1533      H1538   1.083       .  S
C1534      C1535   1.410       .  A
C1535      C1536   1.397       .  A
C1535      F1539   1.358       .  S
C1536      H1540   1.084       .  S
C1541      C1542   1.402       .  A
C1541      C1546   1.396       .  A
C1541      H1551   1.083       .  S
C1542      C1543   1.407       .  A
C1542      C1547   1.479       .  S
C1543      C1544   1.398       .  A
C1543      F1548   1.357       .  S
C1544      C1545   1.405       .  A
C1544      H1549   1.083       .  S
C1545      C1546   1.410       .  A
C1546      F1550   1.358       .  S
C1547      C1552   1.403       .  A
C1547      C1556   1.404       .  A
C1552      C1553   1.397       .  A
C1552      F1557   1.358       .  S
C1553      C1554   1.410       .  A
C1553      H1558   1.083       .  S
C1554      C1555   1.409       .  A
C1555      C1556   1.398       .  A
C1555      F1559   1.357       .  S
C1556      H1560   1.083       .  S
C1561      C1562   1.403       .  A
C1561      C1566   1.393       .  A
C1561      H1571   1.083       .  S
C1562      C1563   1.408       .  A
C1562      C1567   1.482       .  S
C1563      C1564   1.403       .  A
C1563      F1568   1.357       .  S
C1564      C1565   1.406       .  A
C1564      H1569   1.083       .  S
C1565      C1566   1.406       .  A
C1566      F1570   1.358       .  S
C1567      C1572   1.407       .  A
C1567      C1576   1.401       .  A
C1572      C1573   1.402       .  A
C1572      F1577   1.357       .  S
C1573      C1574   1.408       .  A
C1573      H1578   1.083       .  S
C1574      C1575   1.412       .  A
C1575      C1576   1.393       .  A
C1575      F1579   1.358       .  S
C1576      H1580   1.084       .  S
C1581      C1582   1.402       .  A
C1581      C1586   1.396       .  A
C1581      H1591   1.083       .  S
C1582      C1583   1.408       .  A
C1582      C1587   1.486       .  S
C1583      C1584   1.401       .  A
C1583      F1588   1.358       .  S
C1584      C1585   1.409       .  A
C1584      H1589   1.083       .  S
C1585      C1586   1.412       .  A
C1586      F1590   1.357       .  S
C1587      C1592   1.408       .  A
C1587      C1596   1.406       .  A
C1592      C1593   1.399       .  A
C1592      F1597   1.357       .  S
C1593      C1594   1.402       .  A
C1593      H1598   1.083   1_565  S
C1594      C1595   1.406       .  A
C1595      C1596   1.399       .  A
C1595      F1599   1.358       .  S
C1596      H1600   1.083       .  S
C1601      C1602   1.404       .  A
C1601      C1606   1.401       .  A
C1601      H1611   1.083       .  S
C1602      C1603   1.405       .  A
C1602      C1607   1.484       .  S
C1603      C1604   1.398       .  A
C1603      F1608   1.358       .  S
C1604      C1605   1.408       .  A
C1604      H1609   1.083       .  S
C1605      C1606   1.411       .  A
C1606      F1610   1.357       .  S
C1607      C1612   1.406       .  A
C1607      C1616   1.404       .  A
C1612      C1613   1.400       .  A
C1612      F1617   1.357       .  S
C1613      C1614   1.407       .  A
C1613      H1618   1.083       .  S
C1614      C1615   1.408       .  A
C1615      C1616   1.398       .  A
C1615      F1619   1.358       .  S
C1616      H1620   1.083       .  S
C1621      C1622   1.405       .  A
C1621      C1626   1.397       .  A
C1621      H1631   1.083       .  S
C1622      C1623   1.405       .  A
C1622      C1627   1.480       .  S
C1623      C1624   1.397       .  A
C1623      F1628   1.357       .  S
C1624      C1625   1.407       .  A
C1624      H1629   1.083       .  S
C1625      C1626   1.407       .  A
C1626      F1630   1.357       .  S
C1627      C1632   1.406       .  A
C1627      C1636   1.402       .  A
C1632      C1633   1.400       .  A
C1632      F1637   1.357       .  S
C1633      C1634   1.407       .  A
C1633      H1638   1.083       .  S
C1634      C1635   1.410       .  A
C1635      C1636   1.393       .  A
C1635      F1639   1.358       .  S
C1636      H1640   1.084       .  S
C1641      C1642   1.402       .  A
C1641      C1646   1.396       .  A
C1641      H1651   1.083       .  S
C1642      C1643   1.408       .  A
C1642      C1647   1.478       .  S
C1643      C1644   1.398       .  A
C1643      F1648   1.358       .  S
C1644      C1645   1.402       .  A
C1644      H1649   1.083       .  S
C1645      C1646   1.406       .  A
C1646      F1650   1.358       .  S
C1647      C1652   1.404       .  A
C1647      C1656   1.404       .  A
C1652      C1653   1.395       .  A
C1652      F1657   1.358       .  S
C1653      C1654   1.406       .  A
C1653      H1658   1.083       .  S
C1654      C1655   1.408       .  A
C1655      C1656   1.400       .  A
C1655      F1659   1.357       .  S
C1656      H1660   1.083       .  S
C1661      C1662   1.405       .  A
C1661      C1666   1.403       .  A
C1661      H1671   1.083       .  S
C1662      C1663   1.401       .  A
C1662      C1667   1.478   1_554  S
C1663      C1664   1.392       .  A
C1663      F1668   1.358       .  S
C1664      C1665   1.409       .  A
C1664      H1669   1.083       .  S
C1665      C1666   1.411       .  A
C1666      F1670   1.357       .  S
C1667      C1672   1.406       .  A
C1667      C1676   1.402       .  A
C1672      C1673   1.402       .  A
C1672      F1677   1.357       .  S
C1673      C1674   1.406       .  A
C1673      H1678   1.083       .  S
C1674      C1675   1.408       .  A
C1675      C1676   1.394       .  A
C1675      F1679   1.358       .  S
C1676      H1680   1.083   1_556  S
C1681      C1682   1.402       .  A
C1681      C1686   1.399       .  A
C1681      H1691   1.083       .  S
C1682      C1683   1.409       .  A
C1682      C1687   1.489       .  S
C1683      C1684   1.400       .  A
C1683      F1688   1.357       .  S
C1684      C1685   1.406       .  A
C1684      H1689   1.083       .  S
C1685      C1686   1.415       .  A
C1686      F1690   1.358       .  S
C1687      C1692   1.410       .  A
C1687      C1696   1.404       .  A
C1692      C1693   1.404       .  A
C1692      F1697   1.357       .  S
C1693      C1694   1.405       .  A
C1693      H1698   1.083       .  S
C1694      C1695   1.407       .  A
C1695      C1696   1.395       .  A
C1695      F1699   1.358       .  S
C1696      H1700   1.083       .  S
C1701      C1702   1.404       .  A
C1701      C1706   1.403       .  A
C1701      H1711   1.083       .  S
C1702      C1703   1.405       .  A
C1702      C1707   1.484       .  S
C1703      C1704   1.399       .  A
C1703      F1708   1.358       .  S
C1704      C1705   1.407       .  A
C1704      H1709   1.083       .  S
C1705      C1706   1.410       .  A
C1706      F1710   1.357       .  S
C1707      C1712   1.405       .  A
C1707      C1716   1.402       .  A
C1712      C1713   1.403       .  A
C1712      F1717   1.357       .  S
C1713      C1714   1.408       .  A
C1713      H1718   1.083       .  S
C1714      C1715   1.413       .  A
C1715      C1716   1.399       .  A
C1715      F1719   1.358       .  S
C1716      H1720   1.083       .  S
C1721      C1722   1.406       .  A
C1721      C1726   1.401       .  A
C1721      H1731   1.083       .  S
C1722      C1723   1.407       .  A
C1722      C1727   1.486       .  S
C1723      C1724   1.391       .  A
C1723      F1728   1.358       .  S
C1724      C1725   1.406       .  A
C1724      H1729   1.083       .  S
C1725      C1726   1.409       .  A
C1726      F1730   1.357       .  S
C1727      C1732   1.411       .  A
C1727      C1736   1.403       .  A
C1732      C1733   1.403       .  A
C1732      F1737   1.357       .  S
C1733      C1734   1.403       .  A
C1733      H1738   1.083       .  S
C1734      C1735   1.406       .  A
C1735      C1736   1.391       .  A
C1735      F1739   1.358       .  S
C1736      H1740   1.083       .  S
C1741      C1742   1.404       .  A
C1741      C1746   1.401       .  A
C1741      H1751   1.083       .  S
C1742      C1743   1.404       .  A
C1742      C1747   1.482       .  S
C1743      C1744   1.397       .  A
C1743      F1748   1.358       .  S
C1744      C1745   1.409       .  A
C1744      H1749   1.083       .  S
C1745      C1746   1.411       .  A
C1746      F1750   1.357       .  S
C1747      C1752   1.406       .  A
C1747      C1756   1.403       .  A
C1752      C1753   1.398       .  A
C1752      F1757   1.358       .  S
C1753      C1754   1.406       .  A
C1753      H1758   1.083       .  S
C1754      C1755   1.409       .  A
C1755      C1756   1.400       .  A
C1755      F1759   1.357       .  S
C1756      H1760   1.083       .  S
C1761      C1762   1.402       .  A
C1761      C1766   1.397       .  A
C1761      H1771   1.083       .  S
C1762      C1763   1.405       .  A
C1762      C1767   1.481       .  S
C1763      C1764   1.400       .  A
C1763      F1768   1.358       .  S
C1764      C1765   1.408       .  A
C1764      H1769   1.083       .  S
C1765      C1766   1.411       .  A
C1766      F1770   1.357       .  S
C1767      C1772   1.408       .  A
C1767      C1776   1.402       .  A
C1772      C1773   1.401       .  A
C1772      F1777   1.358       .  S
C1773      C1774   1.405   1_556  A
C1773      H1778   1.083       .  S
C1774      C1775   1.408       .  A
C1775      C1776   1.396   1_554  A
C1775      F1779   1.358       .  S
C1776      H1780   1.084       .  S
C1781      C1782   1.406       .  A
C1781      C1786   1.403       .  A
C1781      H1791   1.083       .  S
C1782      C1783   1.407       .  A
C1782      C1787   1.489       .  S
C1783      C1784   1.397       .  A
C1783      F1788   1.358       .  S
C1784      C1785   1.406       .  A
C1784      H1789   1.083       .  S
C1785      C1786   1.409       .  A
C1786      F1790   1.357       .  S
C1787      C1792   1.406       .  A
C1787      C1796   1.406       .  A
C1792      C1793   1.400       .  A
C1792      F1797   1.357       .  S
C1793      C1794   1.409       .  A
C1793      H1798   1.083       .  S
C1794      C1795   1.409       .  A
C1795      C1796   1.399       .  A
C1795      F1799   1.357       .  S
C1796      H1800   1.083       .  S
C1801      C1802   1.407       .  A
C1801      C1806   1.402       .  A
C1801      H1811   1.083       .  S
C1802      C1803   1.407       .  A
C1802      C1807   1.489       .  S
C1803      C1804   1.396       .  A
C1803      F1808   1.357       .  S
C1804      C1805   1.406       .  A
C1804      H1809   1.083       .  S
C1805      C1806   1.409       .  A
C1806      F1810   1.357       .  S
C1807      C1812   1.409       .  A
C1807      C1816   1.406       .  A
C1812      C1813   1.398       .  A
C1812      F1817   1.357       .  S
C1813      C1814   1.403       .  A
C1813      H1818   1.083       .  S
C1814      C1815   1.407       .  A
C1815      C1816   1.399       .  A
C1815      F1819   1.358       .  S
C1816      H1820   1.083       .  S
C1821      C1822   1.401   1_455  A
C1821      C1826   1.395       .  A
C1821      H1831   1.083       .  S
C1822      C1823   1.406       .  A
C1822      C1827   1.477   1_655  S
C1823      C1824   1.402       .  A
C1823      F1828   1.357       .  S
C1824      C1825   1.405       .  A
C1824      H1829   1.083       .  S
C1825      C1826   1.407   1_655  A
C1826      F1830   1.358       .  S
C1827      C1832   1.401   1_455  A
C1827      C1836   1.403       .  A
C1832      C1833   1.395       .  A
C1832      F1837   1.358       .  S
C1833      C1834   1.410   1_655  A
C1833      H1838   1.083       .  S
C1834      C1835   1.410       .  A
C1835      C1836   1.402       .  A
C1835      F1839   1.357       .  S
C1836      H1840   1.083       .  S
C1841      C1842   1.402       .  A
C1841      C1846   1.395       .  A
C1841      H1851   1.084   1_455  S
C1842      C1843   1.405       .  A
C1842      C1847   1.476       .  S
C1843      C1844   1.401       .  A
C1843      F1848   1.357       .  S
C1844      C1845   1.405       .  A
C1844      H1849   1.083       .  S
C1845      C1846   1.406       .  A
C1846      F1850   1.358   1_455  S
C1847      C1852   1.402       .  A
C1847      C1856   1.403       .  A
C1852      C1853   1.395       .  A
C1852      F1857   1.358       .  S
C1853      C1854   1.408       .  A
C1853      H1858   1.083       .  S
C1854      C1855   1.410   1_455  A
C1855      C1856   1.401   1_655  A
C1855      F1859   1.357       .  S
C1856      H1860   1.083   1_455  S
C1861      C1862   1.407       .  A
C1861      C1866   1.399       .  A
C1861      H1871   1.083       .  S
C1862      C1863   1.409       .  A
C1862      C1867   1.491       .  S
C1863      C1864   1.401       .  A
C1863      F1868   1.357       .  S
C1864      C1865   1.405       .  A
C1864      H1869   1.083       .  S
C1865      C1866   1.407       .  A
C1866      F1870   1.358       .  S
C1867      C1872   1.407       .  A
C1867      C1876   1.408       .  A
C1872      C1873   1.396       .  A
C1872      F1877   1.358       .  S
C1873      C1874   1.407       .  A
C1873      H1878   1.084       .  S
C1874      C1875   1.409       .  A
C1875      C1876   1.404       .  A
C1875      F1879   1.357       .  S
C1876      H1880   1.083       .  S
C1881      C1882   1.404       .  A
C1881      C1886   1.400       .  A
C1881      H1891   1.082       .  S
C1882      C1883   1.411       .  A
C1882      C1887   1.499       .  S
C1883      C1884   1.404       .  A
C1883      F1888   1.357       .  S
C1884      C1885   1.410       .  A
C1884      H1889   1.082       .  S
C1885      C1886   1.416       .  A
C1886      F1890   1.357       .  S
C1887      C1892   1.412       .  A
C1887      C1896   1.408       .  A
C1892      C1893   1.401       .  A
C1892      F1897   1.357       .  S
C1893      C1894   1.405       .  A
C1893      H1898   1.083       .  S
C1894      C1895   1.408       .  A
C1895      C1896   1.402       .  A
C1895      F1899   1.358       .  S
C1896      H1900   1.082       .  S
C1901      C1902   1.403       .  A
C1901      C1906   1.398       .  A
C1901      H1911   1.083       .  S
C1902      C1903   1.408       .  A
C1902      C1907   1.489       .  S
C1903      C1904   1.404       .  A
C1903      F1908   1.357       .  S
C1904      C1905   1.408       .  A
C1904      H1909   1.083       .  S
C1905      C1906   1.412       .  A
C1906      F1910   1.358       .  S
C1907      C1912   1.410       .  A
C1907      C1916   1.404       .  A
C1912      C1913   1.405       .  A
C1912      F1917   1.357       .  S
C1913      C1914   1.405       .  A
C1913      H1918   1.083       .  S
C1914      C1915   1.407       .  A
C1915      C1916   1.397       .  A
C1915      F1919   1.358       .  S
C1916      H1920   1.083       .  S
C1921      C1922   1.404       .  A
C1921      C1926   1.401       .  A
C1921      H1931   1.083       .  S
C1922      C1923   1.403       .  A
C1922      C1927   1.481       .  S
C1923      C1924   1.396       .  A
C1923      F1928   1.358       .  S
C1924      C1925   1.409       .  A
C1924      H1929   1.083       .  S
C1925      C1926   1.411       .  A
C1926      F1930   1.357       .  S
C1927      C1932   1.408       .  A
C1927      C1936   1.403       .  A
C1932      C1933   1.397       .  A
C1932      F1937   1.358       .  S
C1933      C1934   1.403       .  A
C1933      H1938   1.083       .  S
C1934      C1935   1.409       .  A
C1935      C1936   1.399       .  A
C1935      F1939   1.358       .  S
C1936      H1940   1.083       .  S
C1941      C1942   1.403       .  A
C1941      C1946   1.398       .  A
C1941      H1951   1.083       .  S
C1942      C1943   1.408       .  A
C1942      C1947   1.487       .  S
C1943      C1944   1.398       .  A
C1943      F1948   1.358       .  S
C1944      C1945   1.407       .  A
C1944      H1949   1.083       .  S
C1945      C1946   1.412       .  A
C1946      F1950   1.357       .  S
C1947      C1952   1.409       .  A
C1947      C1956   1.406       .  A
C1952      C1953   1.400       .  A
C1952      F1957   1.357       .  S
C1953      C1954   1.404       .  A
C1953      H1958   1.084       .  S
C1954      C1955   1.404       .  A
C1955      C1956   1.397       .  A
C1955      F1959   1.358       .  S
C1956      H1960   1.083       .  S
C1961      C1962   1.405       .  A
C1961      C1966   1.401       .  A
C1961      H1971   1.083       .  S
C1962      C1963   1.400       .  A
C1962      C1967   1.476       .  S
C1963      C1964   1.394       .  A
C1963      F1968   1.358       .  S
C1964      C1965   1.409       .  A
C1964      H1969   1.083       .  S
C1965      C1966   1.407       .  A
C1966      F1970   1.357       .  S
C1967      C1972   1.401       .  A
C1967      C1976   1.404       .  A
C1972      C1973   1.396       .  A
C1972      F1977   1.357       .  S
C1973      C1974   1.410       .  A
C1973      H1978   1.083       .  S
C1974      C1975   1.409       .  A
C1975      C1976   1.398       .  A
C1975      F1979   1.357       .  S
C1976      H1980   1.083       .  S
C1981      C1982   1.404       .  A
C1981      C1986   1.401       .  A
C1981      H1991   1.083       .  S
C1982      C1983   1.404       .  A
C1982      C1987   1.477       .  S
C1983      C1984   1.392       .  A
C1983      F1988   1.358       .  S
C1984      C1985   1.406       .  A
C1984      H1989   1.084       .  S
C1985      C1986   1.407       .  A
C1986      F1990   1.357       .  S
C1987      C1992   1.404       .  A
C1987      C1996   1.400       .  A
C1992      C1993   1.400       .  A
C1992      F1997   1.357       .  S
C1993      C1994   1.409       .  A
C1993      H1998   1.083       .  S
C1994      C1995   1.412       .  A
C1995      C1996   1.394       .  A
C1995      F1999   1.358       .  S
C1996      H2000   1.084       .  S
C2001      C2002   1.404       .  A
C2001      C2006   1.400       .  A
C2001      H2011   1.083       .  S
C2002      C2003   1.400       .  A
C2002      C2007   1.473       .  S
C2003      C2004   1.395       .  A
C2003      F2008   1.357       .  S
C2004      C2005   1.408       .  A
C2004      H2009   1.083       .  S
C2005      C2006   1.407       .  A
C2006      F2010   1.357       .  S
C2007      C2012   1.404       .  A
C2007      C2016   1.399       .  A
C2012      C2013   1.398       .  A
C2012      F2017   1.358       .  S
C2013      C2014   1.407       .  A
C2013      H2018   1.083   1_565  S
C2014      C2015   1.413       .  A
C2015      C2016   1.396       .  A
C2015      F2019   1.357       .  S
C2016      H2020   1.083       .  S
C2021      C2022   1.408       .  A
C2021      C2026   1.401       .  A
C2021      H2031   1.083       .  S
C2022      C2023   1.409       .  A
C2022      C2027   1.491       .  S
C2023      C2024   1.397       .  A
C2023      F2028   1.358       .  S
C2024      C2025   1.404       .  A
C2024      H2029   1.084       .  S
C2025      C2026   1.406       .  A
C2026      F2030   1.357       .  S
C2027      C2032   1.408       .  A
C2027      C2036   1.404       .  A
C2032      C2033   1.399       .  A
C2032      F2037   1.358       .  S
C2033      C2034   1.409       .  A
C2033      H2038   1.082       .  S
C2034      C2035   1.413       .  A
C2035      C2036   1.398       .  A
C2035      F2039   1.357       .  S
C2036      H2040   1.083       .  S
C2041      C2042   1.402       .  A
C2041      C2046   1.399       .  A
C2041      H2051   1.083       .  S
C2042      C2043   1.407       .  A
C2042      C2047   1.485       .  S
C2043      C2044   1.400       .  A
C2043      F2048   1.357       .  S
C2044      C2045   1.407       .  A
C2044      H2049   1.083       .  S
C2045      C2046   1.415       .  A
C2046      F2050   1.358       .  S
C2047      C2052   1.408       .  A
C2047      C2056   1.403       .  A
C2052      C2053   1.400       .  A
C2052      F2057   1.357       .  S
C2053      C2054   1.405       .  A
C2053      H2058   1.083       .  S
C2054      C2055   1.410       .  A
C2055      C2056   1.399       .  A
C2055      F2059   1.358       .  S
C2056      H2060   1.083       .  S
C2061      C2062   1.402       .  A
C2061      C2066   1.397       .  A
C2061      H2071   1.083       .  S
C2062      C2063   1.405       .  A
C2062      C2067   1.480       .  S
C2063      C2064   1.403       .  A
C2063      F2068   1.357       .  S
C2064      C2065   1.407       .  A
C2064      H2069   1.083       .  S
C2065      C2066   1.409       .  A
C2066      F2070   1.358       .  S
C2067      C2072   1.402       .  A
C2067      C2076   1.405       .  A
C2072      C2073   1.395       .  A
C2072      F2077   1.358       .  S
C2073      C2074   1.410       .  A
C2073      H2078   1.083       .  S
C2074      C2075   1.411       .  A
C2075      C2076   1.404       .  A
C2075      F2079   1.357       .  S
C2076      H2080   1.083       .  S
C2081      C2082   1.405       .  A
C2081      C2086   1.397       .  A
C2081      H2091   1.083       .  S
C2082      C2083   1.405       .  A
C2082      C2087   1.479       .  S
C2083      C2084   1.400       .  A
C2083      F2088   1.357       .  S
C2084      C2085   1.403       .  A
C2084      H2089   1.083       .  S
C2085      C2086   1.403       .  A
C2086      F2090   1.358       .  S
C2087      C2092   1.405       .  A
C2087      C2096   1.402       .  A
C2092      C2093   1.397       .  A
C2092      F2097   1.358       .  S
C2093      C2094   1.404       .  A
C2093      H2098   1.083   1_655  S
C2094      C2095   1.410       .  A
C2095      C2096   1.400       .  A
C2095      F2099   1.358       .  S
C2096      H2100   1.083       .  S
C2101      C2102   1.403       .  A
C2101      C2106   1.401       .  A
C2101      H2111   1.083       .  S
C2102      C2103   1.404       .  A
C2102      C2107   1.481       .  S
C2103      C2104   1.397       .  A
C2103      F2108   1.358       .  S
C2104      C2105   1.407       .  A
C2104      H2109   1.083       .  S
C2105      C2106   1.411       .  A
C2106      F2110   1.357       .  S
C2107      C2112   1.404       .  A
C2107      C2116   1.402       .  A
C2112      C2113   1.401       .  A
C2112      F2117   1.357       .  S
C2113      C2114   1.410       .  A
C2113      H2118   1.082       .  S
C2114      C2115   1.412       .  A
C2115      C2116   1.397       .  A
C2115      F2119   1.357       .  S
C2116      H2120   1.084       .  S
C2121      C2122   1.406       .  A
C2121      C2126   1.396       .  A
C2121      H2131   1.083       .  S
C2122      C2123   1.411       .  A
C2122      C2127   1.492       .  S
C2123      C2124   1.403       .  A
C2123      F2128   1.357       .  S
C2124      C2125   1.404       .  A
C2124      H2129   1.083       .  S
C2125      C2126   1.406       .  A
C2126      F2130   1.358       .  S
C2127      C2132   1.407       .  A
C2127      C2136   1.406       .  A
C2132      C2133   1.401       .  A
C2132      F2137   1.357       .  S
C2133      C2134   1.409       .  A
C2133      H2138   1.083       .  S
C2134      C2135   1.410       .  A
C2135      C2136   1.399       .  A
C2135      F2139   1.357       .  S
C2136      H2140   1.083       .  S
C2141      C2142   1.405       .  A
C2141      C2146   1.397       .  A
C2141      H2151   1.083       .  S
C2142      C2143   1.403       .  A
C2142      C2147   1.477       .  S
C2143      C2144   1.394       .  A
C2143      F2148   1.357       .  S
C2144      C2145   1.406       .  A
C2144      H2149   1.083       .  S
C2145      C2146   1.407       .  A
C2146      F2150   1.357       .  S
C2147      C2152   1.402       .  A
C2147      C2156   1.404       .  A
C2152      C2153   1.394       .  A
C2152      F2157   1.358       .  S
C2153      C2154   1.409       .  A
C2153      H2158   1.083       .  S
C2154      C2155   1.409       .  A
C2155      C2156   1.396       .  A
C2155      F2159   1.357       .  S
C2156      H2160   1.083       .  S
C2161      C2162   1.405       .  A
C2161      C2166   1.405       .  A
C2161      H2171   1.083       .  S
C2162      C2163   1.404       .  A
C2162      C2167   1.481       .  S
C2163      C2164   1.396       .  A
C2163      F2168   1.358       .  S
C2164      C2165   1.405       .  A
C2164      H2169   1.084   1_565  S
C2165      C2166   1.409       .  A
C2166      F2170   1.357       .  S
C2167      C2172   1.405       .  A
C2167      C2176   1.403       .  A
C2172      C2173   1.403       .  A
C2172      F2177   1.357       .  S
C2173      C2174   1.408       .  A
C2173      H2178   1.083       .  S
C2174      C2175   1.409       .  A
C2175      C2176   1.398       .  A
C2175      F2179   1.357       .  S
C2176      H2180   1.084       .  S
C2181      C2182   1.405   1_545  A
C2181      C2186   1.395       .  A
C2181      H2191   1.083       .  S
C2182      C2183   1.406       .  A
C2182      C2187   1.483       .  S
C2183      C2184   1.396       .  A
C2183      F2188   1.358       .  S
C2184      C2185   1.407   1_565  A
C2184      H2189   1.083       .  S
C2185      C2186   1.408       .  A
C2186      F2190   1.357       .  S
C2187      C2192   1.405       .  A
C2187      C2196   1.407       .  A
C2192      C2193   1.392       .  A
C2192      F2197   1.358   1_565  S
C2193      C2194   1.406       .  A
C2193      H2198   1.083       .  S
C2194      C2195   1.407       .  A
C2195      C2196   1.400       .  A
C2195      F2199   1.357       .  S
C2196      H2200   1.083       .  S
C2201      C2202   1.408       .  A
C2201      C2206   1.404       .  A
C2201      H2211   1.082       .  S
C2202      C2203   1.407       .  A
C2202      C2207   1.492       .  S
C2203      C2204   1.392       .  A
C2203      F2208   1.358       .  S
C2204      C2205   1.407       .  A
C2204      H2209   1.082       .  S
C2205      C2206   1.410       .  A
C2206      F2210   1.357       .  S
C2207      C2212   1.411       .  A
C2207      C2216   1.406       .  A
C2212      C2213   1.404       .  A
C2212      F2217   1.357       .  S
C2213      C2214   1.405       .  A
C2213      H2218   1.083       .  S
C2214      C2215   1.406       .  A
C2215      C2216   1.393       .  A
C2215      F2219   1.358       .  S
C2216      H2220   1.083       .  S
C2221      C2222   1.406       .  A
C2221      C2226   1.401       .  A
C2221      H2231   1.083       .  S
C2222      C2223   1.409       .  A
C2222      C2227   1.493       .  S
C2223      C2224   1.399       .  A
C2223      F2228   1.357       .  S
C2224      C2225   1.407       .  A
C2224      H2229   1.083       .  S
C2225      C2226   1.413       .  A
C2226      F2230   1.358       .  S
C2227      C2232   1.412       .  A
C2227      C2236   1.407       .  A
C2232      C2233   1.401       .  A
C2232      F2237   1.357       .  S
C2233      C2234   1.402       .  A
C2233      H2238   1.084       .  S
C2234      C2235   1.403       .  A
C2235      C2236   1.400       .  A
C2235      F2239   1.357       .  S
C2236      H2240   1.083       .  S
C2241      C2242   1.405       .  A
C2241      C2246   1.397       .  A
C2241      H2251   1.083       .  S
C2242      C2243   1.408       .  A
C2242      C2247   1.479       .  S
C2243      C2244   1.395       .  A
C2243      F2248   1.358       .  S
C2244      C2245   1.400       .  A
C2244      H2249   1.084       .  S
C2245      C2246   1.402       .  A
C2246      F2250   1.357       .  S
C2247      C2252   1.404       .  A
C2247      C2256   1.404       .  A
C2252      C2253   1.394       .  A
C2252      F2257   1.357       .  S
C2253      C2254   1.407       .  A
C2253      H2258   1.083       .  S
C2254      C2255   1.411       .  A
C2255      C2256   1.397       .  A
C2255      F2259   1.358       .  S
C2256      H2260   1.083       .  S
C2261      C2262   1.402   1_565  A
C2261      C2266   1.393       .  A
C2261      H2271   1.084       .  S
C2262      C2263   1.407       .  A
C2262      C2267   1.482   1_545  S
C2263      C2264   1.401       .  A
C2263      F2268   1.357       .  S
C2264      C2265   1.407       .  A
C2264      H2269   1.083       .  S
C2265      C2266   1.411   1_545  A
C2266      F2270   1.358       .  S
C2267      C2272   1.408   1_565  A
C2267      C2276   1.404       .  A
C2272      C2273   1.401   1_556  A
C2272      F2277   1.357       .  S
C2273      C2274   1.404   1_545  A
C2273      H2278   1.083       .  S
C2274      C2275   1.406   1_554  A
C2275      C2276   1.392       .  A
C2275      F2279   1.358       .  S
C2276      H2280   1.083       .  S
C2281      C2282   1.398       .  A
C2281      C2286   1.395       .  A
C2281      H2291   1.083       .  S
C2282      C2283   1.405       .  A
C2282      C2287   1.471       .  S
C2283      C2284   1.399       .  A
C2283      F2288   1.357       .  S
C2284      C2285   1.404       .  A
C2284      H2289   1.083       .  S
C2285      C2286   1.412       .  A
C2286      F2290   1.358       .  S
C2287      C2292   1.401       .  A
C2287      C2296   1.403       .  A
C2292      C2293   1.396       .  A
C2292      F2297   1.357       .  S
C2293      C2294   1.407       .  A
C2293      H2298   1.083       .  S
C2294      C2295   1.407       .  A
C2295      C2296   1.398       .  A
C2295      F2299   1.358       .  S
C2296      H2300   1.084       .  S
C2301      C2302   1.402       .  A
C2301      C2306   1.401       .  A
C2301      H2311   1.083       .  S
C2302      C2303   1.405       .  A
C2302      C2307   1.481       .  S
C2303      C2304   1.398       .  A
C2303      F2308   1.358       .  S
C2304      C2305   1.407       .  A
C2304      H2309   1.083       .  S
C2305      C2306   1.414       .  A
C2306      F2310   1.357       .  S
C2307      C2312   1.407       .  A
C2307      C2316   1.404       .  A
C2312      C2313   1.403       .  A
C2312      F2317   1.357       .  S
C2313      C2314   1.404       .  A
C2313      H2318   1.083       .  S
C2314      C2315   1.403       .  A
C2315      C2316   1.396       .  A
C2315      F2319   1.358       .  S
C2316      H2320   1.084       .  S
C2321      C2322   1.400       .  A
C2321      C2326   1.399       .  A
C2321      H2331   1.083       .  S
C2322      C2323   1.403       .  A
C2322      C2327   1.475       .  S
C2323      C2324   1.397       .  A
C2323      F2328   1.358       .  S
C2324      C2325   1.408       .  A
C2324      H2329   1.083       .  S
C2325      C2326   1.412       .  A
C2326      F2330   1.357       .  S
C2327      C2332   1.406       .  A
C2327      C2336   1.402       .  A
C2332      C2333   1.398       .  A
C2332      F2337   1.358       .  S
C2333      C2334   1.402       .  A
C2333      H2338   1.083       .  S
C2334      C2335   1.406       .  A
C2335      C2336   1.399       .  A
C2335      F2339   1.357       .  S
C2336      H2340   1.083       .  S
C2341      C2342   1.407       .  A
C2341      C2346   1.404       .  A
C2341      H2351   1.083       .  S
C2342      C2343   1.404       .  A
C2342      C2347   1.485       .  S
C2343      C2344   1.393       .  A
C2343      F2348   1.358       .  S
C2344      C2345   1.409       .  A
C2344      H2349   1.083       .  S
C2345      C2346   1.410       .  A
C2346      F2350   1.357   1_455  S
C2347      C2352   1.408       .  A
C2347      C2356   1.404       .  A
C2352      C2353   1.402       .  A
C2352      F2357   1.357       .  S
C2353      C2354   1.406       .  A
C2353      H2358   1.083       .  S
C2354      C2355   1.407       .  A
C2355      C2356   1.394       .  A
C2355      F2359   1.358       .  S
C2356      H2360   1.083       .  S
C2361      C2362   1.403       .  A
C2361      C2366   1.400       .  A
C2361      H2371   1.083       .  S
C2362      C2363   1.404       .  A
C2362      C2367   1.475       .  S
C2363      C2364   1.395       .  A
C2363      F2368   1.358       .  S
C2364      C2365   1.405       .  A
C2364      H2369   1.083       .  S
C2365      C2366   1.408       .  A
C2366      F2370   1.357       .  S
C2367      C2372   1.401       .  A
C2367      C2376   1.404       .  A
C2372      C2373   1.396       .  A
C2372      F2377   1.358       .  S
C2373      C2374   1.410       .  A
C2373      H2378   1.083       .  S
C2374      C2375   1.409       .  A
C2375      C2376   1.398       .  A
C2375      F2379   1.357       .  S
C2376      H2380   1.083       .  S
C2381      C2382   1.409       .  A
C2381      C2386   1.401       .  A
C2381      H2391   1.083       .  S
C2382      C2383   1.410       .  A
C2382      C2387   1.493       .  S
C2383      C2384   1.398       .  A
C2383      F2388   1.358       .  S
C2384      C2385   1.405       .  A
C2384      H2389   1.084       .  S
C2385      C2386   1.406       .  A
C2386      F2390   1.357       .  S
C2387      C2392   1.410       .  A
C2387      C2396   1.406       .  A
C2392      C2393   1.400       .  A
C2392      F2397   1.357       .  S
C2393      C2394   1.407       .  A
C2393      H2398   1.083       .  S
C2394      C2395   1.409       .  A
C2395      C2396   1.398       .  A
C2395      F2399   1.357       .  S
C2396      H2400   1.082       .  S
C2401      C2402   1.405       .  A
C2401      C2406   1.402       .  A
C2401      H2411   1.083       .  S
C2402      C2403   1.403       .  A
C2402      C2407   1.484       .  S
C2403      C2404   1.397       .  A
C2403      F2408   1.357       .  S
C2404      C2405   1.410       .  A
C2404      H2409   1.083       .  S
C2405      C2406   1.411       .  A
C2406      F2410   1.357       .  S
C2407      C2412   1.403       .  A
C2407      C2416   1.406       .  A
C2412      C2413   1.398       .  A
C2412      F2417   1.358       .  S
C2413      C2414   1.410       .  A
C2413      H2418   1.083       .  S
C2414      C2415   1.408       .  A
C2415      C2416   1.401       .  A
C2415      F2419   1.357       .  S
C2416      H2420   1.083       .  S
C2421      C2422   1.402       .  A
C2421      C2426   1.396       .  A
C2421      H2431   1.083       .  S
C2422      C2423   1.407       .  A
C2422      C2427   1.476       .  S
C2423      C2424   1.397       .  A
C2423      F2428   1.358       .  S
C2424      C2425   1.404       .  A
C2424      H2429   1.083       .  S
C2425      C2426   1.408       .  A
C2426      F2430   1.357       .  S
C2427      C2432   1.405       .  A
C2427      C2436   1.400       .  A
C2432      C2433   1.396       .  A
C2432      F2437   1.357       .  S
C2433      C2434   1.406       .  A
C2433      H2438   1.083       .  S
C2434      C2435   1.413       .  A
C2435      C2436   1.396       .  A
C2435      F2439   1.358       .  S
C2436      H2440   1.084       .  S
C2441      C2442   1.404       .  A
C2441      C2446   1.397       .  A
C2441      H2451   1.083       .  S
C2442      C2443   1.410       .  A
C2442      C2447   1.494       .  S
C2443      C2444   1.405       .  A
C2443      F2448   1.357       .  S
C2444      C2445   1.408       .  A
C2444      H2449   1.083       .  S
C2445      C2446   1.411       .  A
C2446      F2450   1.358       .  S
C2447      C2452   1.410       .  A
C2447      C2456   1.408       .  A
C2452      C2453   1.399       .  A
C2452      F2457   1.357       .  S
C2453      C2454   1.402       .  A
C2453      H2458   1.083       .  S
C2454      C2455   1.407       .  A
C2455      C2456   1.403       .  A
C2455      F2459   1.358       .  S
C2456      H2460   1.083       .  S
C2461      C2462   1.406       .  A
C2461      C2466   1.399       .  A
C2461      H2471   1.083       .  S
C2462      C2463   1.406       .  A
C2462      C2467   1.483       .  S
C2463      C2464   1.395       .  A
C2463      F2468   1.358       .  S
C2464      C2465   1.405       .  A
C2464      H2469   1.083       .  S
C2465      C2466   1.406       .  A
C2466      F2470   1.357       .  S
C2467      C2472   1.407       .  A
C2467      C2476   1.405       .  A
C2472      C2473   1.396       .  A
C2472      F2477   1.358       .  S
C2473      C2474   1.406       .  A
C2473      H2478   1.083       .  S
C2474      C2475   1.408       .  A
C2475      C2476   1.397       .  A
C2475      F2479   1.358       .  S
C2476      H2480   1.083       .  S
C2481      C2482   1.402       .  A
C2481      C2486   1.398       .  A
C2481      H2491   1.084       .  S
C2482      C2483   1.402       .  A
C2482      C2487   1.478       .  S
C2483      C2484   1.398       .  A
C2483      F2488   1.358       .  S
C2484      C2485   1.410       .  A
C2484      H2489   1.083       .  S
C2485      C2486   1.411       .  A
C2486      F2490   1.357       .  S
C2487      C2492   1.407       .  A
C2487      C2496   1.402       .  A
C2492      C2493   1.399       .  A
C2492      F2497   1.358       .  S
C2493      C2494   1.403       .  A
C2493      H2498   1.083       .  S
C2494      C2495   1.407       .  A
C2495      C2496   1.397       .  A
C2495      F2499   1.358       .  S
C2496      H2500   1.083       .  S
C2501      C2502   1.401       .  A
C2501      C2506   1.400       .  A
C2501      H2511   1.083       .  S
C2502      C2503   1.403       .  A
C2502      C2507   1.474       .  S
C2503      C2504   1.396       .  A
C2503      F2508   1.358       .  S
C2504      C2505   1.406       .  A
C2504      H2509   1.083       .  S
C2505      C2506   1.410       .  A
C2506      F2510   1.357   1_565  S
C2507      C2512   1.402       .  A
C2507      C2516   1.402       .  A
C2512      C2513   1.397       .  A
C2512      F2517   1.358       .  S
C2513      C2514   1.409       .  A
C2513      H2518   1.083       .  S
C2514      C2515   1.409       .  A
C2515      C2516   1.399       .  A
C2515      F2519   1.357       .  S
C2516      H2520   1.083       .  S
C2521      C2522   1.406       .  A
C2521      C2526   1.400       .  A
C2521      H2531   1.088       .  S
C2522      C2523   1.407   1_565  A
C2522      C2527   1.483       .  S
C2523      C2524   1.394       .  A
C2523      F2528   1.358       .  S
C2524      C2525   1.404       .  A
C2524      H2529   1.088       .  S
C2525      C2526   1.406   1_545  A
C2526      F2530   1.357       .  S
C2527      C2532   1.408   1_565  A
C2527      C2536   1.405       .  A
C2532      C2533   1.397   1_545  A
C2532      F2537   1.358       .  S
C2533      C2534   1.403       .  A
C2533      H2538   1.082   1_565  S
C2534      C2535   1.406       .  A
C2535      C2536   1.398       .  A
C2535      F2539   1.358       .  S
C2536      H2540   1.082       .  S
C2541      C2542   1.404       .  A
C2541      C2546   1.394       .  A
C2541      H2551   1.083   1_556  S
C2542      C2543   1.407       .  A
C2542      C2547   1.484   1_556  S
C2543      C2544   1.402       .  A
C2543      F2548   1.357       .  S
C2544      C2545   1.406       .  A
C2544      H2549   1.083       .  S
C2545      C2546   1.407       .  A
C2546      F2550   1.358       .  S
C2547      C2552   1.404       .  A
C2547      C2556   1.406       .  A
C2552      C2553   1.394       .  A
C2552      F2557   1.358       .  S
C2553      C2554   1.409       .  A
C2553      H2558   1.085       .  S
C2554      C2555   1.410       .  A
C2555      C2556   1.403       .  A
C2555      F2559   1.357       .  S
C2556      H2560   1.085       .  S
C2561      C2562   1.404       .  A
C2561      C2566   1.400       .  A
C2561      H2571   1.083       .  S
C2562      C2563   1.402       .  A
C2562      C2567   1.478       .  S
C2563      C2564   1.396       .  A
C2563      F2568   1.358       .  S
C2564      C2565   1.408       .  A
C2564      H2569   1.083       .  S
C2565      C2566   1.410       .  A
C2566      F2570   1.358       .  S
C2567      C2572   1.402       .  A
C2567      C2576   1.404       .  A
C2572      C2573   1.397       .  A
C2572      F2577   1.357       .  S
C2573      C2574   1.409       .  A
C2573      H2578   1.083       .  S
C2574      C2575   1.407       .  A
C2575      C2576   1.398       .  A
C2575      F2579   1.357       .  S
C2576      H2580   1.083       .  S
C2581      C2582   1.403       .  A
C2581      C2586   1.394       .  A
C2581      H2591   1.083       .  S
C2582      C2583   1.407       .  A
C2582      C2587   1.479       .  S
C2583      C2584   1.400       .  A
C2583      F2588   1.357       .  S
C2584      C2585   1.402       .  A
C2584      H2589   1.083       .  S
C2585      C2586   1.404       .  A
C2586      F2590   1.358       .  S
C2587      C2592   1.404       .  A
C2587      C2596   1.404       .  A
C2592      C2593   1.395       .  A
C2592      F2597   1.358       .  S
C2593      C2594   1.407       .  A
C2593      H2598   1.083       .  S
C2594      C2595   1.410       .  A
C2595      C2596   1.399       .  A
C2595      F2599   1.357       .  S
C2596      H2600   1.083       .  S
C2601      C2602   1.406       .  A
C2601      C2606   1.399       .  A
C2601      H2611   1.083       .  S
C2602      C2603   1.408       .  A
C2602      C2607   1.489       .  S
C2603      C2604   1.402       .  A
C2603      F2608   1.357       .  S
C2604      C2605   1.405       .  A
C2604      H2609   1.083       .  S
C2605      C2606   1.406       .  A
C2606      F2610   1.358       .  S
C2607      C2612   1.406       .  A
C2607      C2616   1.407       .  A
C2612      C2613   1.397       .  A
C2612      F2617   1.358       .  S
C2613      C2614   1.407       .  A
C2613      H2618   1.083       .  S
C2614      C2615   1.409       .  A
C2615      C2616   1.404       .  A
C2615      F2619   1.357       .  S
C2616      H2620   1.083       .  S
C2621      C2622   1.404       .  A
C2621      C2626   1.402       .  A
C2621      H2631   1.083       .  S
C2622      C2623   1.401       .  A
C2622      C2627   1.476       .  S
C2623      C2624   1.396       .  A
C2623      F2628   1.357       .  S
C2624      C2625   1.409       .  A
C2624      H2629   1.083       .  S
C2625      C2626   1.408       .  A
C2626      F2630   1.357       .  S
C2627      C2632   1.404       .  A
C2627      C2636   1.399       .  A
C2632      C2633   1.400       .  A
C2632      F2637   1.357       .  S
C2633      C2634   1.407       .  A
C2633      H2638   1.083       .  S
C2634      C2635   1.414       .  A
C2635      C2636   1.398       .  A
C2635      F2639   1.358       .  S
C2636      H2640   1.083       .  S
C2641      C2642   1.406       .  A
C2641      C2646   1.400       .  A
C2641      H2651   1.083       .  S
C2642      C2643   1.410       .  A
C2642      C2647   1.495       .  S
C2643      C2644   1.401       .  A
C2643      F2648   1.357       .  S
C2644      C2645   1.407       .  A
C2644      H2649   1.083       .  S
C2645      C2646   1.410       .  A
C2646      F2650   1.357       .  S
C2647      C2652   1.411       .  A
C2647      C2656   1.409       .  A
C2652      C2653   1.399       .  A
C2652      F2657   1.357       .  S
C2653      C2654   1.403       .  A
C2653      H2658   1.084       .  S
C2654      C2655   1.404       .  A
C2655      C2656   1.402       .  A
C2655      F2659   1.357       .  S
C2656      H2660   1.083       .  S
C2661      C2662   1.402       .  A
C2661      C2666   1.395       .  A
C2661      H2671   1.084       .  S
C2662      C2663   1.408       .  A
C2662      C2667   1.486       .  S
C2663      C2664   1.403       .  A
C2663      F2668   1.357       .  S
C2664      C2665   1.408       .  A
C2664      H2669   1.083       .  S
C2665      C2666   1.413       .  A
C2666      F2670   1.358       .  S
C2667      C2672   1.409       .  A
C2667      C2676   1.404       .  A
C2672      C2673   1.404       .  A
C2672      F2677   1.357       .  S
C2673      C2674   1.405       .  A
C2673      H2678   1.083       .  S
C2674      C2675   1.407       .  A
C2675      C2676   1.394       .  A
C2675      F2679   1.358       .  S
C2676      H2680   1.083       .  S
C2681      C2682   1.408       .  A
C2681      C2686   1.403       .  A
C2681      H2691   1.083       .  S
C2682      C2683   1.410       .  A
C2682      C2687   1.492       .  S
C2683      C2684   1.395       .  A
C2683      F2688   1.358       .  S
C2684      C2685   1.402       .  A
C2684      H2689   1.084       .  S
C2685      C2686   1.406       .  A
C2686      F2690   1.357       .  S
C2687      C2692   1.411       .  A
C2687      C2696   1.404       .  A
C2692      C2693   1.404       .  A
C2692      F2697   1.357       .  S
C2693      C2694   1.407       .  A
C2693      H2698   1.083       .  S
C2694      C2695   1.411       .  A
C2695      C2696   1.394       .  A
C2695      F2699   1.358       .  S
C2696      H2700   1.083       .  S
C2701      C2702   1.403       .  A
C2701      C2706   1.398       .  A
C2701      H2711   1.083       .  S
C2702      C2703   1.406       .  A
C2702      C2707   1.481       .  S
C2703      C2704   1.395       .  A
C2703      F2708   1.358       .  S
C2704      C2705   1.405       .  A
C2704      H2709   1.083       .  S
C2705      C2706   1.410       .  A
C2706      F2710   1.358       .  S
C2707      C2712   1.408       .  A
C2707      C2716   1.405       .  A
C2712      C2713   1.394       .  A
C2712      F2717   1.358       .  S
C2713      C2714   1.401       .  A
C2713      H2718   1.084       .  S
C2714      C2715   1.404       .  A
C2715      C2716   1.399       .  A
C2715      F2719   1.357       .  S
C2716      H2720   1.083       .  S
C2721      C2722   1.404       .  A
C2721      C2726   1.399       .  A
C2721      H2731   1.083       .  S
C2722      C2723   1.406       .  A
C2722      C2727   1.484       .  S
C2723      C2724   1.402       .  A
C2723      F2728   1.357       .  S
C2724      C2725   1.407       .  A
C2724      H2729   1.083       .  S
C2725      C2726   1.408       .  A
C2726      F2730   1.357       .  S
C2727      C2732   1.405       .  A
C2727      C2736   1.403       .  A
C2732      C2733   1.402       .  A
C2732      F2737   1.357       .  S
C2733      C2734   1.409       .  A
C2733      H2738   1.083       .  S
C2734      C2735   1.411       .  A
C2735      C2736   1.399       .  A
C2735      F2739   1.357       .  S
C2736      H2740   1.084       .  S
C2741      C2742   1.406       .  A
C2741      C2746   1.401   1_655  A
C2741      H2751   1.083   1_655  S
C2742      C2743   1.404       .  A
C2742      C2747   1.481       .  S
C2743      C2744   1.393       .  A
C2743      F2748   1.358       .  S
C2744      C2745   1.407       .  A
C2744      H2749   1.083       .  S
C2745      C2746   1.408   1_655  A
C2746      F2750   1.357       .  S
C2747      C2752   1.407       .  A
C2747      C2756   1.405       .  A
C2752      C2753   1.395       .  A
C2752      F2757   1.358       .  S
C2753      C2754   1.403       .  A
C2753      H2758   1.084       .  S
C2754      C2755   1.406       .  A
C2755      C2756   1.400       .  A
C2755      F2759   1.357       .  S
C2756      H2760   1.083       .  S
C2761      C2762   1.405       .  A
C2761      C2766   1.395       .  A
C2761      H2771   1.083       .  S
C2762      C2763   1.410       .  A
C2762      C2767   1.486       .  S
C2763      C2764   1.400       .  A
C2763      F2768   1.357       .  S
C2764      C2765   1.403       .  A
C2764      H2769   1.083       .  S
C2765      C2766   1.406       .  A
C2766      F2770   1.358       .  S
C2767      C2772   1.409       .  A
C2767      C2776   1.403       .  A
C2772      C2773   1.398       .  A
C2772      F2777   1.358       .  S
C2773      C2774   1.406       .  A
C2773      H2778   1.083       .  S
C2774      C2775   1.413       .  A
C2775      C2776   1.397       .  A
C2775      F2779   1.358       .  S
C2776      H2780   1.083       .  S
C2781      C2782   1.402       .  A
C2781      C2786   1.395       .  A
C2781      H2791   1.083       .  S
C2782      C2783   1.408       .  A
C2782      C2787   1.481       .  S
C2783      C2784   1.400       .  A
C2783      F2788   1.357       .  S
C2784      C2785   1.405       .  A
C2784      H2789   1.083       .  S
C2785      C2786   1.410       .  A
C2786      F2790   1.358       .  S
C2787      C2792   1.405   1_655  A
C2787      C2796   1.403       .  A
C2792      C2793   1.397       .  A
C2792      F2797   1.357       .  S
C2793      C2794   1.407   1_455  A
C2793      H2798   1.083       .  S
C2794      C2795   1.411       .  A
C2795      C2796   1.397       .  A
C2795      F2799   1.358       .  S
C2796      H2800   1.083       .  S
C2801      C2802   1.407       .  A
C2801      C2806   1.397       .  A
C2801      H2811   1.083       .  S
C2802      C2803   1.411       .  A
C2802      C2807   1.492       .  S
C2803      C2804   1.402       .  A
C2803      F2808   1.357   1_655  S
C2804      C2805   1.404       .  A
C2804      H2809   1.083   1_655  S
C2805      C2806   1.405       .  A
C2806      F2810   1.358       .  S
C2807      C2812   1.408       .  A
C2807      C2816   1.407       .  A
C2812      C2813   1.397       .  A
C2812      F2817   1.357       .  S
C2813      C2814   1.407       .  A
C2813      H2818   1.083       .  S
C2814      C2815   1.410       .  A
C2815      C2816   1.402       .  A
C2815      F2819   1.357   1_655  S
C2816      H2820   1.083   1_655  S
C2821      C2822   1.400       .  A
C2821      C2826   1.396       .  A
C2821      H2831   1.084       .  S
C2822      C2823   1.407       .  A
C2822      C2827   1.483       .  S
C2823      C2824   1.403       .  A
C2823      F2828   1.357       .  S
C2824      C2825   1.408       .  A
C2824      H2829   1.083       .  S
C2825      C2826   1.415       .  A
C2826      F2830   1.358       .  S
C2827      C2832   1.409       .  A
C2827      C2836   1.402       .  A
C2832      C2833   1.399       .  A
C2832      F2837   1.358       .  S
C2833      C2834   1.402       .  A
C2833      H2838   1.083       .  S
C2834      C2835   1.410       .  A
C2835      C2836   1.400       .  A
C2835      F2839   1.358       .  S
C2836      H2840   1.083       .  S
C2841      C2842   1.406       .  A
C2841      C2846   1.401       .  A
C2841      H2851   1.083       .  S
C2842      C2843   1.408       .  A
C2842      C2847   1.495       .  S
C2843      C2844   1.402       .  A
C2843      F2848   1.357       .  S
C2844      C2845   1.409       .  A
C2844      H2849   1.083       .  S
C2845      C2846   1.412       .  A
C2846      F2850   1.357   1_455  S
C2847      C2852   1.410       .  A
C2847      C2856   1.407       .  A
C2852      C2853   1.402       .  A
C2852      F2857   1.357       .  S
C2853      C2854   1.405       .  A
C2853      H2858   1.083       .  S
C2854      C2855   1.406       .  A
C2855      C2856   1.401       .  A
C2855      F2859   1.357       .  S
C2856      H2860   1.083       .  S
C2861      C2862   1.405       .  A
C2861      C2866   1.397       .  A
C2861      H2871   1.083       .  S
C2862      C2863   1.407       .  A
C2862      C2867   1.483       .  S
C2863      C2864   1.399       .  A
C2863      F2868   1.358       .  S
C2864      C2865   1.406       .  A
C2864      H2869   1.083       .  S
C2865      C2866   1.405       .  A
C2866      F2870   1.357       .  S
C2867      C2872   1.407       .  A
C2867      C2876   1.403       .  A
C2872      C2873   1.401       .  A
C2872      F2877   1.357       .  S
C2873      C2874   1.406       .  A
C2873      H2878   1.083   1_455  S
C2874      C2875   1.410       .  A
C2875      C2876   1.396       .  A
C2875      F2879   1.358       .  S
C2876      H2880   1.084       .  S
