geometry optimzed in LAMMPS
_audit_creation_date              2020-11-30 
_audit_creation_method            'lammps2cif' 
_symmetry_space_group_name_H-M    'P1' 
_symmetry_Int_Tables_number       1 
_symmetry_cell_setting            triclinic 
loop_ 
_symmetry_equiv_pos_as_xyz 
  x,y,z 
_cell_length_a                    25.83973862 
_cell_length_b                    26.016533249155522 
_cell_length_c                    25.91599554306894 
_cell_angle_alpha                 90.04217096179342 
_cell_angle_beta                  90.00244543982689 
_cell_angle_gamma                 89.98210340786639 
loop_ 
_atom_site_label 
_atom_site_type_symbol 
_atom_site_fract_x 
_atom_site_fract_y 
_atom_site_fract_z 
_atom_site_charge 
N1          N  0.03941473  0.50054217  0.42446520    -0.35800
N2          N  0.04038765  0.57987814  0.50369810    -0.56400
N3          N  0.04256751  0.50073712  0.58387831    -0.35800
N4          N  0.03580134  0.42165205  0.50460217    -0.56400
C5          C  0.02987331  0.54265994  0.39528058     0.27800
C6          C  0.02695898  0.45887467  0.39572000     0.27800
C7          C  0.03470374  0.54312244  0.61322527     0.27800
C8          C  0.03231908  0.45918245  0.61368817     0.27800
C9          C  0.04664650  0.61010170  0.46172184     0.36400
C10         C  0.04796080  0.61026153  0.54534303     0.36400
C11         C  0.03891618  0.39080211  0.46272210     0.36400
C12         C  0.04083990  0.39085043  0.54631000     0.36400
C13         C  0.01224948  0.52750334  0.34706640    -0.21100
C14         C  0.01042882  0.47471264  0.34733317    -0.21100
C15         C  0.02061308  0.52826833  0.66266310    -0.21100
C16         C  0.01929954  0.47541616  0.66300438    -0.21100
C17         C  0.05815922  0.65993218  0.47675103    -0.22200
C18         C  0.05895036  0.66005558  0.52970555    -0.22200
C19         C  0.04581017  0.34018802  0.47787976    -0.22200
C20         C  0.04693466  0.34019800  0.53079143    -0.22200
C21         C  0.03805262  0.59440125  0.41018845    -0.17500
C22         C  0.03138576  0.40682475  0.41116594    -0.17500
C23         C  0.03558699  0.40695056  0.59818982    -0.17500
C24         C  0.04114807  0.59485728  0.59727130    -0.17500
H25         H  0.00161399  0.55193503  0.31497888     0.15400
H26         H  0.99815681  0.45073673  0.31545347     0.15400
H27         H  0.01205278  0.55293333  0.69521572     0.15400
H28         H  0.00958302  0.45168844  0.69588883     0.15400
H29         H  0.06432684  0.69296855  0.45214566     0.13700
H30         H  0.06594092  0.69323354  0.55394694     0.13700
H31         H  0.04865574  0.30658691  0.45338809     0.13700
H32         H  0.05072181  0.30656105  0.55504710     0.12800
H33         H  0.05796953  0.50005617  0.45994847     0.26900
H34         H  0.05835161  0.50016408  0.54712221     0.26900
O35         O  0.98680360  0.14603530  0.08985957    -0.79400
O36         O  0.99704378  0.85329781  0.08996056    -0.80900
O37         O  0.90067786  0.99924038  0.14874237    -0.77900
O38         O  0.07057878  0.00173278  0.15477535    -0.76300
O39         O  0.13447462  0.99927260  0.09376809    -0.78100
O40         O  0.83987633  0.99694326  0.08446495    -0.79000
O41         O  0.99557760  0.91540524  0.15241408    -0.80400
O42         O  0.98593358  0.08442333  0.15255067    -0.80600
Eu43       Eu  0.98719907  0.99967935  0.10971968     2.39200
O44         O  0.04159167  0.94809731  0.05866837    -0.88200
O45         O  0.93524539  0.05075763  0.05563093    -0.91800
C46         C  0.98653811  0.13180030  0.13770079     1.02900
C47         C  0.99929463  0.86814912  0.13746375     1.02700
C48         C  0.85351463  0.99815714  0.13231644     1.02700
C49         C  0.11849853  0.00057446  0.14089486     1.00500
H50         H  0.91465746  0.92348625  0.07794629     0.30300
O51         O  0.93649974  0.94568748  0.05676453    -1.00500
H52         H  0.06127010  0.07439650  0.08079958     0.30300
O53         O  0.04035663  0.05248017  0.05862733    -1.03100
O54         O  0.99842526  0.85149164  0.92132775    -0.80300
O55         O  0.99488936  0.14523169  0.91882685    -0.79900
O56         O  0.84433425  0.91202310  0.99768870    -0.78300
O57         O  0.13912496  0.91661597  0.00520229    -0.81600
O58         O  0.13658452  0.08577336  0.00927456    -0.79500
O59         O  0.84112176  0.08075583  0.99889682    -0.78100
O60         O  0.91004697  0.99986763  0.85489224    -0.79700
O61         O  0.07936452  0.00046709  0.86135151    -0.81600
O62         O  0.84617623  0.99764226  0.91596844    -0.78300
O63         O  0.14043444  0.00280792  0.92501386    -0.81000
O64         O  0.90724048  0.85044089  0.00033595    -0.76700
O65         O  0.90248834  0.14399203  0.00062216    -0.76800
O66         O  0.07254517  0.14642905  0.00620565    -0.76400
O67         O  0.07656580  0.85442952  0.00483439    -0.79900
O68         O  0.99958695  0.91359683  0.85916496    -0.79300
O69         O  0.99958994  0.08256884  0.85703498    -0.77700
Eu70       Eu  0.99127468  0.89491490  0.00513902     2.39800
Eu71       Eu  0.98835715  0.10359875  0.00454881     2.39600
Eu72       Eu  0.88560802  0.99718017  0.00174169     2.38400
Eu73       Eu  0.09508361  0.00070016  0.00798082     2.39900
Eu74       Eu  0.99332823  0.99879255  0.90035052     2.39800
O75         O  0.04319146  0.05187444  0.95420429    -0.92100
O76         O  0.93962460  0.94549870  0.95042868    -0.91000
C77         C  0.00168670  0.86615799  0.87390391     1.03100
C78         C  0.99953204  0.13007060  0.87144941     1.01800
C79         C  0.85942790  0.86466197  0.99748981     1.01200
C80         C  0.12416128  0.86924188  0.00395738     1.03200
C81         C  0.12049729  0.13274384  0.00785829     1.02100
C82         C  0.85506332  0.12840931  0.99849897     1.01000
C83         C  0.86211140  0.99938017  0.86884192     1.01000
C84         C  0.12663576  0.00197621  0.87721844     1.03700
H85         H  0.91744088  0.07188242  0.92811347     0.31000
O86         O  0.93850132  0.05047055  0.95072742    -1.04200
H87         H  0.06749452  0.92691980  0.93344992     0.33100
O88         O  0.04466152  0.94785847  0.95451870    -1.06800
N89         N  0.49203603  0.00504410  0.58375554    -0.35800
N90         N  0.56988460  0.00836872  0.50322713    -0.56400
N91         N  0.48857253  0.00629568  0.42575357    -0.35800
N92         N  0.41091711  0.99706154  0.50627500    -0.56400
C93         C  0.53520363  0.99874352  0.61247622     0.27800
C94         C  0.45127378  0.99311229  0.61407615     0.27800
C95         C  0.53049230  0.99928117  0.39537903     0.27800
C96         C  0.44643452  0.99507580  0.39700382     0.27800
C97         C  0.60105299  0.01609117  0.54427189     0.36400
C98         C  0.59934642  0.01572289  0.46091053     0.36400
C99         C  0.38096645  0.00155378  0.54867640     0.36400
C100        C  0.37911049  0.00290529  0.46540207     0.36400
C101        C  0.52158320  0.98351818  0.66196598    -0.21100
C102        C  0.46858925  0.98000674  0.66296597    -0.21100
C103        C  0.51470295  0.98434122  0.34643333    -0.21100
C104        C  0.46163288  0.98179503  0.34743791    -0.21100
C105        C  0.65074609  0.02788892  0.52799550    -0.22200
C106        C  0.64966778  0.02764658  0.47508920    -0.22200
C107        C  0.32973651  0.00918078  0.53468247    -0.22200
C108        C  0.32857203  0.01006890  0.48182768    -0.22200
C109        C  0.58640686  0.00855573  0.59610557    -0.17500
C110        C  0.39871820  0.99667061  0.59987788    -0.17500
C111        C  0.39450181  0.99902920  0.41340848    -0.17500
C112        C  0.58247834  0.00820483  0.40972608    -0.17500
H113        H  0.54709800  0.97608725  0.69423245     0.15400
H114        H  0.44542597  0.96935741  0.69607356     0.15400
H115        H  0.53886665  0.97639808  0.31325584     0.15400
H116        H  0.43704539  0.97148707  0.31523826     0.15400
H117        H  0.68447057  0.03494541  0.55173758     0.13700
H118        H  0.68237954  0.03457698  0.44995174     0.13700
H119        H  0.29660996  0.01341268  0.55989633     0.13700
H120        H  0.29438437  0.01501498  0.45820710     0.13700
H121        H  0.49008987  0.02210525  0.54770916     0.26900
H122        H  0.48832487  0.02327428  0.46192875     0.26900
N123        N  0.48723893  0.57682030  0.97689374    -0.35800
N124        N  0.40800603  0.49756017  0.96946421    -0.56400
N125        N  0.48771692  0.41860691  0.96624405    -0.35800
N126        N  0.56702345  0.49819166  0.97795674    -0.56400
C127        C  0.44448699  0.60588491  0.98459259     0.27800
C128        C  0.52894466  0.60634245  0.98790578     0.27800
C129        C  0.44528183  0.38915960  0.97425014     0.27800
C130        C  0.52951152  0.38941691  0.97760085     0.27800
C131        C  0.37719645  0.53928076  0.96527234     0.36400
C132        C  0.37766542  0.45621381  0.96073578     0.36400
C133        C  0.59791808  0.54006626  0.97541322     0.36400
C134        C  0.59795915  0.45689468  0.97095877     0.36400
C135        C  0.45934147  0.65492438  0.99961103    -0.21100
C136        C  0.51249568  0.65519887  0.00171568    -0.21100
C137        C  0.46040161  0.34033052  0.98952019    -0.21100
C138        C  0.51352802  0.34042035  0.99139333    -0.21100
C139        C  0.32695821  0.52424501  0.95382322    -0.22200
C140        C  0.32732146  0.47165933  0.95078746    -0.22200
C141        C  0.64882395  0.52518562  0.96747976    -0.22200
C142        C  0.64883901  0.47253109  0.96461706    -0.22200
C143        C  0.39258701  0.59036289  0.97590515    -0.17500
C144        C  0.58148128  0.59139970  0.98302480    -0.17500
C145        C  0.58180224  0.40513193  0.97447052    -0.17500
C146        C  0.39326201  0.40467201  0.96741861    -0.17500
H147        H  0.43459240  0.68755175  0.00749244     0.15400
H148        H  0.53625396  0.68798871  0.01164924     0.15400
H149        H  0.43573510  0.30793635  0.99852074     0.15400
H150        H  0.53761022  0.30811619  0.00215984     0.15400
H151        H  0.29316188  0.54841120  0.94942913     0.13700
H152        H  0.29400590  0.44746974  0.94360340     0.13700
H153        H  0.68259928  0.54962125  0.96475549     0.13700
H154        H  0.68260887  0.44846336  0.95935841     0.13700
H155        H  0.48809996  0.54081080  0.95995440     0.26900
H156        H  0.48843645  0.45486538  0.94960984     0.26900
C157        C  0.78880642  0.73728624  0.97472221    -0.13600
C158        C  0.73829130  0.75015508  0.98961574     0.16800
C159        C  0.72785054  0.80027209  0.00706320     0.03100
C160        C  0.76759020  0.83680168  0.00880163    -0.12100
C161        C  0.81856652  0.82426062  0.99431876    -0.03100
C162        C  0.82888212  0.77360154  0.97702043     0.02300
C163        C  0.69714336  0.71052600  0.98764454     0.09200
N164        N  0.67676996  0.81485666  0.02227372     0.65500
H165        H  0.75829227  0.87529538  0.02161045     0.18400
N166        N  0.87930583  0.75868137  0.96007563     0.76000
H167        H  0.79718983  0.69870277  0.96130267     0.10000
C168        C  0.67914368  0.69110402  0.94015744     0.03700
C169        C  0.64145283  0.65243484  0.93938078    -0.05100
C170        C  0.62173918  0.63220684  0.98547568    -0.23500
C171        C  0.64003475  0.65121050  0.03302201     0.12900
C172        C  0.67711031  0.69055700  0.03380732    -0.12600
N173        N  0.69831532  0.71093373  0.89247100     0.64600
H174        H  0.62746700  0.63805365  0.90268514     0.12400
N175        N  0.62196841  0.63010408  0.08060707     0.61200
H176        H  0.69123245  0.70476314  0.07051815     0.08600
O177        O  0.89143454  0.76382399  0.91319914    -0.40200
O178        O  0.90779945  0.73230243  0.98943226    -0.39400
O179        O  0.66655657  0.82152949  0.06941568    -0.39400
O180        O  0.64435886  0.82838966  0.98849685    -0.37100
O181        O  0.64181779  0.58922982  0.09777541    -0.38000
O182        O  0.59128063  0.65557132  0.10856631    -0.34200
O183        O  0.73020857  0.68498243  0.86636253    -0.35600
O184        O  0.67806573  0.75062247  0.87311981    -0.39900
C185        C  0.68270159  0.31374799  0.02801104    -0.13600
C186        C  0.70003617  0.28909913  0.98292956     0.16800
C187        C  0.67749306  0.30233189  0.93507906     0.03100
C188        C  0.63871956  0.33988167  0.93300810    -0.12100
C189        C  0.62232685  0.36493922  0.97793384    -0.03100
C190        C  0.64433395  0.35165499  0.02573550     0.02300
C191        C  0.74005351  0.24826943  0.98678208     0.09200
N192        N  0.69461891  0.27899444  0.88814845     0.65500
H193        H  0.62182008  0.35010488  0.89614135     0.18400
N194        N  0.62723276  0.37583019  0.07223822     0.76000
H195        H  0.69868775  0.30316027  0.06516241     0.10000
C196        C  0.78830645  0.25760890  0.01038096     0.03700
C197        C  0.82464979  0.21791548  0.01445930    -0.05100
C198        C  0.81415640  0.16845268  0.99520626    -0.23500
C199        C  0.76548537  0.15905237  0.97199124     0.12900
C200        C  0.72904889  0.19876993  0.96825963    -0.12600
N201        N  0.80155897  0.30760802  0.02911236     0.64600
H202        H  0.86158591  0.22612233  0.03247833     0.12400
N203        N  0.75292138  0.11001091  0.95046523     0.61200
H204        H  0.69174760  0.19078223  0.95092451     0.08600
O205        O  0.64540667  0.41894991  0.08521542    -0.40200
O206        O  0.59084801  0.35620040  0.09801761    -0.39400
O207        O  0.66497900  0.24881215  0.86406133    -0.39400
O208        O  0.73551438  0.29474788  0.86678292    -0.37100
O209        O  0.72886301  0.07749766  0.97745247    -0.38000
O210        O  0.75735330  0.10287585  0.90249827    -0.34200
O211        O  0.80856730  0.31460203  0.07679485    -0.35600
O212        O  0.81375497  0.34254353  0.99763661    -0.39900
C213        C  0.24423374  0.79314821  0.96692703    -0.13600
C214        C  0.23314012  0.74526136  0.98914218     0.16800
C215        C  0.18714277  0.73899901  0.01755435     0.03100
C216        C  0.15294945  0.78026902  0.02295906    -0.12100
C217        C  0.16363979  0.82821917  0.00040847    -0.03100
C218        C  0.21000897  0.83453041  0.97226518     0.02300
C219        C  0.27170325  0.70343842  0.98508518     0.09200
N220        N  0.17392764  0.69051100  0.03983083     0.65500
H221        H  0.11746310  0.77453645  0.04450596     0.18400
N222        N  0.22224076  0.88206869  0.94756538     0.76000
H223        H  0.27988135  0.79851194  0.94555710     0.10000
C224        C  0.28881184  0.68523502  0.93670934     0.03700
C225        C  0.32911497  0.64933235  0.93433733    -0.05100
C226        C  0.35133623  0.62986668  0.97963230    -0.23500
C227        C  0.33335566  0.64707007  0.02793695     0.12900
C228        C  0.29436295  0.68422492  0.03031377    -0.12600
N229        N  0.26429908  0.70147512  0.88998032     0.64600
H230        H  0.34222206  0.63544242  0.89712876     0.12400
N231        N  0.35442124  0.62703191  0.07477162     0.61200
H232        H  0.28194182  0.69840795  0.06763790     0.08600
O233        O  0.20926545  0.88910347  0.90116111    -0.40200
O234        O  0.25407757  0.91232590  0.96853442    -0.39400
O235        O  0.17456155  0.68519110  0.08822047    -0.39400
O236        O  0.15315553  0.65635529  0.01214086    -0.37100
O237        O  0.38481245  0.65421216  0.10138764    -0.38000
O238        O  0.33613386  0.58619734  0.09362521    -0.34200
O239        O  0.29057903  0.72283008  0.85500885    -0.35600
O240        O  0.21821249  0.68823311  0.88083346    -0.39900
C241        C  0.24408572  0.21029665  0.02573221    -0.13600
C242        C  0.23213990  0.25444490  0.99715283     0.16800
C243        C  0.18335868  0.25901521  0.97370352     0.03100
C244        C  0.14739095  0.21928667  0.97851492    -0.12100
C245        C  0.15933961  0.17440523  0.00624476    -0.03100
C246        C  0.20819227  0.17022270  0.03041197     0.02300
C247        C  0.27217249  0.29397922  0.98944639     0.09200
N248        N  0.16999939  0.30375093  0.94466742     0.65500
H249        H  0.11023983  0.22322191  0.95949175     0.18400
N250        N  0.22160948  0.12612574  0.06045101     0.76000
H251        H  0.28171121  0.20669583  0.04386871     0.10000
C252        C  0.28582768  0.32810823  0.02927691     0.03700
C253        C  0.32556409  0.36368563  0.02139438    -0.05100
C254        C  0.35199084  0.36564933  0.97416532    -0.23500
C255        C  0.33815947  0.33165285  0.93420116     0.12900
C256        C  0.29820510  0.29620370  0.94203373    -0.12600
N257        N  0.25901220  0.32755849  0.07747216     0.64600
H258        H  0.33578445  0.39010350  0.05210463     0.12400
N259        N  0.36432919  0.33278842  0.88567105     0.61200
H260        H  0.28789406  0.26981815  0.91132369     0.08600
O261        O  0.21046289  0.12492141  0.10784236    -0.40200
O262        O  0.25180296  0.09273183  0.04195537    -0.39400
O263        O  0.16944136  0.30172779  0.89602590    -0.39400
O264        O  0.15058263  0.34209171  0.96737563    -0.37100
O265        O  0.40449212  0.30593767  0.87926465    -0.38000
O266        O  0.34232543  0.35260037  0.84703954    -0.34200
O267        O  0.27992536  0.30723453  0.11643222    -0.35600
O268        O  0.21852327  0.35412800  0.08297334    -0.39900
C269        C  0.78905577  0.03012077  0.74548942    -0.13600
C270        C  0.74201777  0.00495071  0.75473942     0.16800
C271        C  0.73502869  0.97739953  0.80084381     0.03100
C272        C  0.77481371  0.97570171  0.83723795    -0.12100
C273        C  0.82199631  0.00101223  0.82836225    -0.03100
C274        C  0.82905696  0.02841208  0.78183505     0.02300
C275        C  0.70124473  0.00634737  0.71503074     0.09200
N276        N  0.68718623  0.95210781  0.81170988     0.65500
H277        H  0.76868207  0.95449412  0.87270201     0.18400
N278        N  0.87562310  0.05635638  0.77183581     0.76000
H279        H  0.79464105  0.05126261  0.70989736     0.10000
C280        C  0.67701391  0.05288626  0.70123451     0.03700
C281        C  0.64043816  0.05332890  0.66145602    -0.05100
C282        C  0.62757931  0.00780790  0.63561939    -0.23500
C283        C  0.65172091  0.96134644  0.64936024     0.12900
C284        C  0.68826842  0.96084755  0.68904991    -0.12600
N285        N  0.68789417  0.09940100  0.72858522     0.64600
H286        H  0.62118589  0.08894912  0.65138066     0.12400
N287        N  0.63882532  0.91447698  0.62358955     0.61200
H288        H  0.70715539  0.92504642  0.69916998     0.08600
O289        O  0.88029661  0.10180628  0.78822283    -0.40200
O290        O  0.90845024  0.03864272  0.74046164    -0.39400
O291        O  0.68427196  0.90381139  0.80834030    -0.39400
O292        O  0.65057531  0.97698713  0.83208449    -0.37100
O293        O  0.60866223  0.88273406  0.64476620    -0.38000
O294        O  0.65482386  0.90628979  0.57831995    -0.34200
O295        O  0.70819495  0.13692495  0.70535008    -0.35600
O296        O  0.67185276  0.10502425  0.77423835    -0.39900
C297        C  0.29500411  0.95288460  0.69291566    -0.13600
C298        C  0.28207200  0.99957686  0.71701385     0.16800
C299        C  0.30881291  0.04482581  0.70325330     0.03100
C300        C  0.34767706  0.04276680  0.66592407    -0.12100
C301        C  0.35980531  0.99637939  0.64149751    -0.03100
C302        C  0.33358554  0.95108261  0.65515626     0.02300
C303        C  0.24209226  0.00018662  0.75782456     0.09200
N304        N  0.29557647  0.09340024  0.72546869     0.65500
H305        H  0.36760477  0.07773043  0.65489013     0.18400
N306        N  0.34608176  0.90322216  0.63105653     0.76000
H307        H  0.27557543  0.91767319  0.70396447     0.10000
C308        C  0.19210160  0.98064986  0.74878723     0.03700
C309        C  0.15557460  0.98103388  0.78843677    -0.05100
C310        C  0.16745561  0.00153062  0.83722986    -0.23500
C311        C  0.21764682  0.02118405  0.84620316     0.12900
C312        C  0.25452807  0.01970248  0.80676321    -0.12600
N313        N  0.17727927  0.96197315  0.69902394     0.64600
H314        H  0.11737957  0.96569065  0.78060873     0.12400
N315        N  0.23121121  0.04482338  0.89414834     0.61200
H316        H  0.29309183  0.03421408  0.81433931     0.08600
O317        O  0.31728580  0.88544251  0.59601742    -0.40200
O318        O  0.38741025  0.88012422  0.64269667    -0.39400
O319        O  0.32827464  0.11722953  0.75260712    -0.39400
O320        O  0.25427123  0.11560195  0.71212668    -0.37100
O321        O  0.25478887  0.01908218  0.92803310    -0.38000
O322        O  0.22841056  0.09304490  0.89863516    -0.34200
O323        O  0.16481969  0.91540383  0.69340515    -0.35600
O324        O  0.16921657  0.99335401  0.66279988    -0.39900
C325        C  0.29188558  0.95308343  0.32010987    -0.13600
C326        C  0.27852903  0.99924688  0.29562692     0.16800
C327        C  0.30262261  0.04546836  0.31067046     0.03100
C328        C  0.34019391  0.04478125  0.34940825    -0.12100
C329        C  0.35376853  0.99856238  0.37348797    -0.03100
C330        C  0.32920226  0.95252700  0.35908925     0.02300
C331        C  0.23768907  0.99897840  0.25605184     0.09200
N332        N  0.28989897  0.09306399  0.28623158     0.65500
H333        H  0.35914245  0.08025768  0.36054271     0.18400
N334        N  0.34179928  0.90518650  0.38397288     0.76000
H335        H  0.27275560  0.91758705  0.30937062     0.10000
C336        C  0.24425093  0.97255597  0.20917287     0.03700
C337        C  0.20497692  0.97366417  0.17218803    -0.05100
C338        C  0.15849985  0.00012989  0.18153430    -0.23500
C339        C  0.15144743  0.02515349  0.22941284     0.12900
C340        C  0.19111476  0.02456971  0.26603566    -0.12600
N341        N  0.29087264  0.94502360  0.19842635     0.64600
H342        H  0.21078733  0.95339669  0.13609137     0.12400
N343        N  0.10458208  0.05163036  0.24145090     0.61200
H344        H  0.18553627  0.04414575  0.30255551     0.08600
O345        O  0.37332611  0.87453004  0.36309657    -0.40200
O346        O  0.31709327  0.89143240  0.42361875    -0.39400
O347        O  0.26488123  0.12687083  0.31069459    -0.39400
O348        O  0.30884014  0.10368701  0.24265260    -0.37100
O349        O  0.09843345  0.09738988  0.22653475    -0.38000
O350        O  0.07468458  0.03325682  0.27520322    -0.34200
O351        O  0.29106865  0.89655571  0.20022628    -0.35600
O352        O  0.32951758  0.96851495  0.18032795    -0.39900
C353        C  0.68475758  0.96199451  0.31626294    -0.13600
C354        C  0.69428730  0.00684068  0.28777659     0.16800
C355        C  0.66670662  0.05229556  0.29938019     0.03100
C356        C  0.63130827  0.05239505  0.34026219    -0.12100
C357        C  0.62196352  0.00755005  0.36852364    -0.03100
C358        C  0.64859830  0.96203530  0.35631174     0.02300
C359        C  0.73463989  0.00569552  0.24747072     0.09200
N360        N  0.67264496  0.09773470  0.26872308     0.65500
H361        H  0.60984728  0.08708960  0.34913890     0.18400
N362        N  0.63843558  0.91553815  0.38380843     0.76000
H363        H  0.70570471  0.92696327  0.30748023     0.10000
C364        C  0.77990199  0.03555641  0.25199575     0.03700
C365        C  0.81796844  0.03239482  0.21385408    -0.05100
C366        C  0.81218539  0.99952494  0.17143661    -0.23500
C367        C  0.76675291  0.96981258  0.16671332     0.12900
C368        C  0.72827791  0.97334763  0.20463000    -0.12600
N369        N  0.78845813  0.06790393  0.29586368     0.64600
H370        H  0.85254779  0.05544256  0.21743869     0.12400
N371        N  0.76021810  0.93432555  0.12501841     0.61200
H372        H  0.69368831  0.95003373  0.20120570     0.08600
O373        O  0.66306634  0.90554476  0.42462292    -0.40200
O374        O  0.60180413  0.88666786  0.36979338    -0.39400
O375        O  0.66588337  0.09557922  0.22053338    -0.39400
O376        O  0.67734189  0.14100938  0.29027572    -0.37100
O377        O  0.79188965  0.89784586  0.11907840    -0.38000
O378        O  0.72069913  0.93705074  0.09653934    -0.34200
O379        O  0.79427399  0.04817632  0.33995408    -0.35600
O380        O  0.79667608  0.11531477  0.28968356    -0.39900
C381        C  0.03954246  0.20089744  0.74864135    -0.13600
C382        C  0.01469378  0.24851676  0.75504661     0.16800
C383        C  0.98378038  0.25622997  0.79934105     0.03100
C384        C  0.97932246  0.21732680  0.83657045    -0.12100
C385        C  0.00498443  0.17008151  0.83072810    -0.03100
C386        C  0.03530289  0.16202712  0.78595413     0.02300
C387        C  0.02066682  0.28931769  0.71490702     0.09200
N388        N  0.95756348  0.30388045  0.80771423     0.65500
H389        H  0.95560202  0.22421968  0.87036410     0.18400
N390        N  0.06411986  0.11562220  0.77891792     0.76000
H391        H  0.06270542  0.19386615  0.71451586     0.10000
C392        C  0.07003302  0.30646659  0.69871143     0.03700
C393        C  0.07424969  0.34485613  0.66092486    -0.05100
C394        C  0.03001603  0.36639569  0.63839114    -0.23500
C395        C  0.98084548  0.34846900  0.65327182     0.12900
C396        C  0.97645068  0.31041669  0.69133745    -0.12600
N397        N  0.11625829  0.28584014  0.72081342     0.64600
H398        H  0.11222777  0.35807686  0.64917916     0.12400
N399        N  0.93516964  0.36812432  0.62925872     0.61200
H400        H  0.93834078  0.29667278  0.70192838     0.08600
O401        O  0.10901196  0.11194385  0.79772938    -0.40200
O402        O  0.04865820  0.08241043  0.74693697    -0.39400
O403        O  0.90877592  0.30547259  0.80611489    -0.39400
O404        O  0.98244777  0.34229468  0.82407051    -0.37100
O405        O  0.91202326  0.40625690  0.64858188    -0.38000
O406        O  0.92066520  0.35038342  0.58630176    -0.34200
O407        O  0.14644573  0.25922537  0.69336475    -0.35600
O408        O  0.13062500  0.30041639  0.76498793    -0.39900
C409        C  0.98973513  0.70450827  0.67926754    -0.13600
C410        C  0.03208430  0.71494675  0.71154600     0.16800
C411        C  0.07772231  0.68544313  0.70622107     0.03100
C412        C  0.07982748  0.64582686  0.66947266    -0.12100
C413        C  0.03749002  0.63586159  0.63714229    -0.03100
C414        C  0.99224478  0.66558590  0.64212026     0.02300
C415        C  0.02635796  0.75430455  0.75275113     0.09200
N416        N  0.12262913  0.69641727  0.73663982     0.65500
H417        H  0.11497170  0.62347380  0.66528247     0.18400
N418        N  0.94822067  0.65587077  0.61022613     0.76000
H419        H  0.95408065  0.72600642  0.68365339     0.10000
C420        C  0.01038306  0.80480615  0.74131175     0.03700
C421        C  0.00161909  0.83992715  0.78127641    -0.05100
C422        C  0.00932954  0.82628925  0.83324362    -0.23500
C423        C  0.02572210  0.77548439  0.84458828     0.12900
C424        C  0.03349429  0.74013381  0.80447155    -0.12600
N425        N  0.00436867  0.82147288  0.68909713     0.64600
H426        H  0.98939179  0.87848166  0.77123260     0.12400
N427        N  0.03620376  0.75931626  0.89626255     0.61200
H428        H  0.04513012  0.70121628  0.81384091     0.08600
O429        O  0.91631604  0.62137796  0.62278596    -0.40200
O430        O  0.93768188  0.68597868  0.57355230    -0.39400
O431        O  0.14346916  0.66138156  0.76313049    -0.39400
O432        O  0.14456140  0.73959620  0.73288248    -0.37100
O433        O  0.00572372  0.72850609  0.91836149    -0.38000
O434        O  0.08029937  0.76745362  0.91551984    -0.34200
O435        O  0.96068959  0.83635063  0.67323951    -0.35600
O436        O  0.04384588  0.82818678  0.66124958    -0.39900
C437        C  0.98572663  0.69993443  0.32334543    -0.13600
C438        C  0.02771433  0.70833496  0.29020925     0.16800
C439        C  0.07359013  0.67987228  0.29700756     0.03100
C440        C  0.07656459  0.64295507  0.33633032    -0.12100
C441        C  0.03452329  0.63467094  0.36958110    -0.03100
C442        C  0.98894459  0.66367227  0.36307837     0.02300
C443        C  0.02303337  0.74809302  0.24976821     0.09200
N444        N  0.11726034  0.68811690  0.26425063     0.65500
H445        H  0.11174093  0.62077218  0.34108634     0.18400
N446        N  0.94563742  0.65645799  0.39653317     0.76000
H447        H  0.95045493  0.72197957  0.31854532     0.10000
C448        C  0.99688671  0.73801385  0.20326395     0.03700
C449        C  0.98938054  0.77755243  0.16738674    -0.05100
C450        C  0.00727670  0.82769643  0.17717569    -0.23500
C451        C  0.03404224  0.83743891  0.22385217     0.12900
C452        C  0.04163346  0.79767989  0.25955261    -0.12600
N453        N  0.97758600  0.68776697  0.19213886     0.64600
H454        H  0.96898675  0.76899403  0.13186357     0.12400
N455        N  0.05522331  0.88694262  0.23497267     0.61200
H456        H  0.06177114  0.80565022  0.29536645     0.08600
O457        O  0.94022779  0.68504348  0.43551468    -0.40200
O458        O  0.90896293  0.62753540  0.38277381    -0.39400
O459        O  0.15250576  0.71869386  0.27814724    -0.39400
O460        O  0.12435552  0.65939138  0.22564742    -0.37100
O461        O  0.10169255  0.89634635  0.22341338    -0.38000
O462        O  0.03132576  0.91690910  0.26496250    -0.34200
O463        O  0.93007604  0.67821174  0.19794070    -0.35600
O464        O  0.00613535  0.65569127  0.16923212    -0.39900
C465        C  0.05551774  0.31661395  0.29829880    -0.13600
C466        C  0.00656813  0.29371257  0.29210768     0.16800
C467        C  0.96637935  0.30729164  0.32657300     0.03100
C468        C  0.97550270  0.34334644  0.36569201    -0.12100
C469        C  0.02408965  0.36650913  0.37115193    -0.03100
C470        C  0.06446090  0.35271679  0.33749020     0.02300
C471        C  0.99914924  0.25336422  0.25187327     0.09200
N472        N  0.91569420  0.28587413  0.32147584     0.65500
H473        H  0.94423004  0.35414696  0.39137915     0.18400
N474        N  0.11488931  0.37446774  0.34347703     0.76000
H475        H  0.08728464  0.30548031  0.27341163     0.10000
C476        C  0.01230163  0.26190223  0.19980723     0.03700
C477        C  0.00780461  0.22196090  0.16370369    -0.05100
C478        C  0.98927078  0.17303364  0.17790724    -0.23500
C479        C  0.97465914  0.16514602  0.23008779     0.12900
C480        C  0.98048181  0.20487328  0.26625163    -0.12600
N481        N  0.02870680  0.31148263  0.18263919     0.64600
H482        H  0.01884588  0.22959418  0.12411345     0.12400
N483        N  0.95114670  0.11838723  0.24699890     0.61200
H484        H  0.97057711  0.19749424  0.30618746     0.08600
O485        O  0.13010109  0.40922172  0.31313742    -0.40200
O486        O  0.14313010  0.36103499  0.38084325    -0.39400
O487        O  0.89728463  0.25857610  0.35727960    -0.39400
O488        O  0.88662021  0.30059148  0.28526709    -0.37100
O489        O  0.97937828  0.08035132  0.25777497    -0.38000
O490        O  0.90592911  0.12013786  0.26520580    -0.34200
O491        O  0.07451935  0.31793124  0.16708588    -0.35600
O492        O  0.99559003  0.34643967  0.17561814    -0.39900
loop_ 
_geom_bond_atom_site_label_1 
_geom_bond_atom_site_label_2 
_geom_bond_distance 
_geom_bond_site_symmetry_2 
_ccdc_geom_bond_type 
N1            C6   1.354       .  A
N1            C5   1.354       .  A
N1           H33   1.037       .  S
N2            C9   1.352       .  A
N2           C10   1.352       .  A
N3            C8   1.355       .  A
N3            C7   1.354       .  A
N3           H34   1.036       .  S
N4           C11   1.352       .  A
N4           C12   1.352       .  A
C5           C13   1.387       .  A
C5           C21   1.416       .  A
C6           C22   1.417       .  A
C6           C14   1.388       .  A
C7           C15   1.387       .  A
C7           C24   1.418       .  A
C8           C23   1.419       .  A
C8           C16   1.387       .  A
C9           C21   1.414       .  A
C9           C17   1.386       .  A
C10          C24   1.415       .  A
C10          C18   1.387       .  A
C11          C19   1.386       .  A
C11          C22   1.413       .  A
C12          C20   1.386       .  A
C12          C23   1.414       .  A
C13          C14   1.374       .  A
C13          H25   1.082       .  S
C14          H26   1.082   1_455  S
C15          C16   1.375       .  A
C15          H27   1.082       .  S
C16          H28   1.082       .  S
C17          C18   1.373       .  A
C17          H29   1.082       .  S
C18          H30   1.082       .  S
C19          C20   1.372       .  A
C19          H31   1.082       .  S
C20          H32   1.082       .  S
C21         C441   1.488       .  S
C22         C469   1.486       .  S
C23         C394   1.490       .  S
C24         C413   1.488       .  S
O35          C46   1.294       .  A
O35         Eu71   2.471       .  S
O36          C47   1.291       .  A
O36         Eu70   2.456       .  S
O37          C48   1.291       .  A
O37         Eu43   2.454       .  S
O38          C49   1.290       .  A
O38         Eu43   2.451   1_445  S
O39          C49   1.290   1_565  A
O39         Eu73   2.445   1_565  S
O40          C48   1.290       .  A
O40         Eu72   2.448       .  S
O41          C47   1.292       .  A
O41         Eu43   2.466       .  S
O42          C46   1.292       .  A
O42         Eu43   2.468   1_545  S
Eu43         O53   2.352   1_665  S
Eu43         O45   2.353   1_565  S
Eu43         O44   2.350   1_655  S
Eu43         O51   2.360       .  S
O44         Eu73   2.348   1_565  S
O44         Eu70   2.351   1_455  S
O45         Eu71   2.352       .  S
O45         Eu72   2.353   1_545  S
C46         C478   1.497       .  S
C47         C450   1.487   1_655  S
C48         C366   1.473       .  S
C49         C338   1.476       .  S
H50          O51   0.977       .  S
O51         Eu72   2.358       .  S
O51         Eu70   2.353       .  S
H52          O53   0.973       .  S
O53         Eu71   2.354   1_455  S
O53         Eu73   2.352       .  S
O54          C77   1.290   1_655  A
O54         Eu70   2.454   1_556  S
O55          C78   1.295       .  A
O55         Eu71   2.478   1_556  S
O56          C79   1.292       .  A
O56         Eu72   2.461   1_556  S
O57          C80   1.292       .  A
O57         Eu73   2.467   1_565  S
O58          C81   1.291       .  A
O58         Eu73   2.460       .  S
O59          C82   1.291       .  A
O59         Eu72   2.460   1_546  S
O60          C83   1.290       .  A
O60         Eu74   2.453       .  S
O61          C84   1.289       .  A
O61         Eu74   2.443   1_445  S
O62          C83   1.290       .  A
O62         Eu72   2.445   1_556  S
O63          C84   1.289       .  A
O63         Eu73   2.449   1_556  S
O64          C79   1.292   1_554  A
O64         Eu70   2.464       .  S
O65          C82   1.292   1_554  A
O65         Eu71   2.457       .  S
O66          C81   1.290       .  A
O66         Eu71   2.445   1_455  S
O67          C80   1.289       .  A
O67         Eu70   2.442   1_455  S
O68          C77   1.293   1_655  A
O68         Eu74   2.465       .  S
O69          C78   1.291       .  A
O69         Eu74   2.458   1_545  S
Eu70         O88   2.351   1_654  S
Eu70         O76   2.351   1_554  S
Eu71         O75   2.349   1_654  S
Eu71         O86   2.348   1_554  S
Eu72         O86   2.354   1_564  S
Eu72         O76   2.350   1_554  S
Eu73         O75   2.348   1_554  S
Eu73         O88   2.346   1_544  S
Eu74         O75   2.348   1_665  S
Eu74         O86   2.349   1_565  S
Eu74         O88   2.343   1_655  S
Eu74         O76   2.353       .  S
C77         C422   1.491       .  S
C78         C385   1.490   1_655  S
C79         C161   1.492       .  S
C80         C217   1.479       .  S
C81         C245   1.478       .  S
C82         C198   1.486       .  S
C83         C273   1.475   1_565  S
C84         C310   1.479       .  S
H85          O86   0.975       .  S
H87          O88   0.971       .  S
N89          C94   1.351   1_545  A
N89          C93   1.351   1_545  A
N89         H121   1.036       .  S
N90          C97   1.349       .  A
N90          C98   1.349       .  A
N91          C96   1.351   1_545  A
N91          C95   1.351   1_545  A
N91         H122   1.036       .  S
N92          C99   1.349   1_565  A
N92         C100   1.349   1_565  A
C93         C101   1.388       .  A
C93         C109   1.413   1_565  A
C94         C110   1.410       .  A
C94         C102   1.386       .  A
C95         C103   1.388       .  A
C95         C112   1.413   1_565  A
C96         C111   1.411       .  A
C96         C104   1.387       .  A
C97         C109   1.409       .  A
C97         C105   1.386       .  A
C98         C112   1.410       .  A
C98         C106   1.386       .  A
C99         C107   1.387       .  A
C99         C110   1.410   1_545  A
C100        C108   1.386       .  A
C100        C111   1.408   1_545  A
C101        C102   1.373       .  A
C101        H113   1.082       .  S
C102        H114   1.082       .  S
C103        C104   1.373       .  A
C103        H115   1.082       .  S
C104        H116   1.082       .  S
C105        C106   1.371       .  A
C105        H117   1.082       .  S
C106        H118   1.082       .  S
C107        C108   1.370       .  A
C107        H119   1.082       .  S
C108        H120   1.082       .  S
C109        C282   1.477       .  S
C110        C301   1.475       .  S
C111        C329   1.476       .  S
C112        C357   1.477       .  S
N123        C128   1.354       .  A
N123        C127   1.353       .  A
N123        H155   1.035       .  S
N124        C131   1.350       .  A
N124        C132   1.350       .  A
N125        C130   1.353       .  A
N125        C129   1.354       .  A
N125        H156   1.038       .  S
N126        C133   1.352       .  A
N126        C134   1.351       .  A
C127        C135   1.388       .  A
C127        C143   1.419       .  A
C128        C144   1.418       .  A
C128        C136   1.387   1_556  A
C129        C137   1.387       .  A
C129        C146   1.414       .  A
C130        C145   1.414       .  A
C130        C138   1.387       .  A
C131        C143   1.414       .  A
C131        C139   1.388       .  A
C132        C146   1.411       .  A
C132        C140   1.386       .  A
C133        C141   1.386       .  A
C133        C144   1.415       .  A
C134        C142   1.386       .  A
C134        C145   1.413       .  A
C135        C136   1.375   1_556  A
C135        H147   1.082   1_556  S
C136        H148   1.082       .  S
C137        C138   1.374       .  A
C137        H149   1.082       .  S
C138        H150   1.082   1_556  S
C139        C140   1.370       .  A
C139        H151   1.082       .  S
C140        H152   1.083       .  S
C141        C142   1.372       .  A
C141        H153   1.082       .  S
C142        H154   1.082       .  S
C143        C226   1.484       .  S
C144        C170   1.488       .  S
C145        C189   1.482       .  S
C146        C254   1.483       .  S
C157        C158   1.402       .  A
C157        C162   1.403       .  A
C157        H167   1.084       .  S
C158        C159   1.406   1_556  A
C158        C163   1.482       .  S
C159        C160   1.400       .  A
C159        N164   1.429       .  S
C160        C161   1.408   1_554  A
C160        H165   1.082       .  S
C161        C162   1.417       .  A
C162        N166   1.429       .  S
C163        C168   1.409       .  A
C163        C172   1.404   1_556  A
N164        O179   1.262       .  A
N164        O180   1.262   1_554  A
N166        O177   1.262       .  A
N166        O178   1.262       .  A
C168        C169   1.401       .  A
C168        N173   1.428       .  S
C169        C170   1.402       .  A
C169        H174   1.084       .  S
C170        C171   1.409   1_556  A
C171        C172   1.402       .  A
C171        N175   1.429       .  S
C172        H176   1.084       .  S
N173        O183   1.262       .  A
N173        O184   1.262       .  A
N175        O181   1.262       .  A
N175        O182   1.262       .  A
C185        C186   1.406   1_554  A
C185        C190   1.399       .  A
C185        H195   1.083       .  S
C186        C187   1.413       .  A
C186        C191   1.486       .  S
C187        C188   1.400       .  A
C187        N192   1.429       .  S
C188        C189   1.400       .  A
C188        H193   1.084       .  S
C189        C190   1.406   1_556  A
C190        N194   1.429       .  S
C191        C196   1.410   1_556  A
C191        C200   1.403       .  A
N192        O207   1.262       .  A
N192        O208   1.262       .  A
N194        O205   1.262       .  A
N194        O206   1.262       .  A
C196        C197   1.400       .  A
C196        N201   1.430       .  S
C197        C198   1.406   1_554  A
C197        H202   1.084       .  S
C198        C199   1.415       .  A
C199        C200   1.401       .  A
C199        N203   1.430       .  S
C200        H204   1.084       .  S
N201        O211   1.262       .  A
N201        O212   1.262   1_554  A
N203        O209   1.262       .  A
N203        O210   1.262       .  A
C213        C214   1.403       .  A
C213        C218   1.400       .  A
C213        H223   1.084       .  S
C214        C215   1.408   1_556  A
C214        C219   1.479       .  S
C215        C216   1.397       .  A
C215        N220   1.429       .  S
C216        C217   1.405       .  A
C216        H221   1.084       .  S
C217        C218   1.412   1_554  A
C218        N222   1.429       .  S
C219        C224   1.411       .  A
C219        C228   1.403   1_556  A
N220        O235   1.262       .  A
N220        O236   1.262       .  A
N222        O233   1.262       .  A
N222        O234   1.262       .  A
C224        C225   1.400       .  A
C224        N229   1.431       .  S
C225        C226   1.402       .  A
C225        H230   1.084       .  S
C226        C227   1.408   1_556  A
C227        C228   1.397       .  A
C227        N231   1.429       .  S
C228        H232   1.084       .  S
N229        O239   1.262       .  A
N229        O240   1.262       .  A
N231        O237   1.262       .  A
N231        O238   1.262       .  A
C241        C242   1.401   1_554  A
C241        C246   1.401       .  A
C241        H251   1.084       .  S
C242        C243   1.404       .  A
C242        C247   1.473       .  S
C243        C244   1.396       .  A
C243        N248   1.429       .  S
C244        C245   1.406   1_556  A
C244        H249   1.084       .  S
C245        C246   1.413       .  A
C246        N250   1.430       .  S
C247        C252   1.406   1_556  A
C247        C256   1.402       .  A
N248        O263   1.262       .  A
N248        O264   1.262       .  A
N250        O261   1.262       .  A
N250        O262   1.262       .  A
C252        C253   1.398       .  A
C252        N257   1.428       .  S
C253        C254   1.403   1_554  A
C253        H258   1.084       .  S
C254        C255   1.408       .  A
C255        C256   1.399       .  A
C255        N259   1.428       .  S
C256        H260   1.084       .  S
N257        O267   1.262       .  A
N257        O268   1.262       .  A
N259        O265   1.262       .  A
N259        O266   1.262       .  A
C269        C270   1.402       .  A
C269        C274   1.399       .  A
C269        H279   1.084       .  S
C270        C271   1.405   1_545  A
C270        C275   1.473       .  S
C271        C272   1.396       .  A
C271        N276   1.429       .  S
C272        C273   1.405   1_565  A
C272        H277   1.084       .  S
C273        C274   1.413       .  A
C274        N278   1.430       .  S
C275        C280   1.409       .  A
C275        C284   1.402   1_545  A
N276        O291   1.262       .  A
N276        O292   1.262       .  A
N278        O289   1.262       .  A
N278        O290   1.262       .  A
C280        C281   1.399       .  A
C280        N285   1.430       .  S
C281        C282   1.400       .  A
C281        H286   1.084       .  S
C282        C283   1.406   1_545  A
C283        C284   1.396       .  A
C283        N287   1.429       .  S
C284        H288   1.084       .  S
N285        O295   1.262       .  A
N285        O296   1.262       .  A
N287        O293   1.262       .  A
N287        O294   1.262       .  A
C297        C298   1.406       .  A
C297        C302   1.398       .  A
C297        H307   1.083       .  S
C298        C299   1.411   1_565  A
C298        C303   1.479   1_565  S
C299        C300   1.395       .  A
C299        N304   1.430       .  S
C300        C301   1.398   1_545  A
C300        H305   1.084       .  S
C301        C302   1.405       .  A
C302        N306   1.429       .  S
C303        C308   1.408   1_545  A
C303        C312   1.403       .  A
N304        O319   1.262       .  A
N304        O320   1.262       .  A
N306        O317   1.262       .  A
N306        O318   1.262       .  A
C308        C309   1.395       .  A
C308        N313   1.430       .  S
C309        C310   1.406   1_565  A
C309        H314   1.084       .  S
C310        C311   1.413       .  A
C311        C312   1.398       .  A
C311        N315   1.430       .  S
C312        H316   1.084       .  S
N313        O323   1.262       .  A
N313        O324   1.262       .  A
N315        O321   1.262       .  A
N315        O322   1.262       .  A
C325        C326   1.402       .  A
C325        C330   1.397       .  A
C325        H335   1.084       .  S
C326        C327   1.409   1_565  A
C326        C331   1.472       .  S
C327        C328   1.397       .  A
C327        N332   1.429       .  S
C328        C329   1.400   1_545  A
C328        H333   1.084       .  S
C329        C330   1.406       .  A
C330        N334   1.428       .  S
C331        C336   1.406       .  A
C331        C340   1.399   1_565  A
N332        O347   1.262       .  A
N332        O348   1.262       .  A
N334        O345   1.262       .  A
N334        O346   1.262       .  A
C336        C337   1.396       .  A
C336        N341   1.429       .  S
C337        C338   1.405   1_565  A
C337        H342   1.084       .  S
C338        C339   1.413       .  A
C339        C340   1.397       .  A
C339        N343   1.427       .  S
C340        H344   1.084       .  S
N341        O351   1.262       .  A
N341        O352   1.262       .  A
N343        O349   1.262       .  A
N343        O350   1.261       .  A
C353        C354   1.403   1_565  A
C353        C358   1.397       .  A
C353        H363   1.084       .  S
C354        C355   1.413       .  A
C354        C359   1.476       .  S
C355        C356   1.400       .  A
C355        N360   1.433       .  S
C356        C357   1.399       .  A
C356        H361   1.084       .  S
C357        C358   1.405   1_545  A
C358        N362   1.429       .  S
C359        C364   1.409       .  A
C359        C368   1.402   1_545  A
N360        O375   1.262       .  A
N360        O376   1.262       .  A
N362        O373   1.262       .  A
N362        O374   1.262       .  A
C364        C365   1.397       .  A
C364        N369   1.431       .  S
C365        C366   1.400   1_545  A
C365        H370   1.080       .  S
C366        C367   1.411       .  A
C367        C368   1.401       .  A
C367        N371   1.431       .  S
C368        H372   1.084       .  S
N369        O379   1.262       .  A
N369        O380   1.262       .  A
N371        O377   1.262       .  A
N371        O378   1.262       .  A
C381        C382   1.405       .  A
C381        C386   1.404       .  A
C381        H391   1.083       .  S
C382        C383   1.413   1_455  A
C382        C387   1.495       .  S
C383        C384   1.404       .  A
C383        N388   1.429       .  S
C384        C385   1.405   1_655  A
C384        H389   1.084       .  S
C385        C386   1.416       .  A
C386        N390   1.430       .  S
C387        C392   1.415       .  A
C387        C396   1.407   1_455  A
N388        O403   1.262       .  A
N388        O404   1.262       .  A
N390        O401   1.262       .  A
N390        O402   1.262       .  A
C392        C393   1.404       .  A
C392        N397   1.429       .  S
C393        C394   1.401       .  A
C393        H398   1.084       .  S
C394        C395   1.408   1_455  A
C395        C396   1.403       .  A
C395        N399   1.429       .  S
C396        H400   1.083       .  S
N397        O407   1.262       .  A
N397        O408   1.262       .  A
N399        O405   1.262       .  A
N399        O406   1.262       .  A
C409        C410   1.404   1_655  A
C409        C414   1.398       .  A
C409        H419   1.084       .  S
C410        C411   1.414       .  A
C410        C415   1.486       .  S
C411        C412   1.404       .  A
C411        N416   1.432       .  S
C412        C413   1.402       .  A
C412        H417   1.084       .  S
C413        C414   1.407   1_455  A
C414        N418   1.429       .  S
C415        C420   1.409       .  A
C415        C424   1.403       .  A
N416        O431   1.262       .  A
N416        O432   1.262       .  A
N418        O429   1.262       .  A
N418        O430   1.262       .  A
C420        C421   1.399       .  A
C420        N425   1.430       .  S
C421        C422   1.407       .  A
C421        H426   1.083   1_455  S
C422        C423   1.419       .  A
C423        C424   1.402       .  A
C423        N427   1.430       .  S
C424        H428   1.084       .  S
N425        O435   1.262   1_455  A
N425        O436   1.262       .  A
N427        O433   1.262       .  A
N427        O434   1.262       .  A
C437        C438   1.401   1_655  A
C437        C442   1.400       .  A
C437        H447   1.084       .  S
C438        C439   1.409       .  A
C438        C443   1.478       .  S
C439        C440   1.403       .  A
C439        N444   1.428       .  S
C440        C441   1.403       .  A
C440        H445   1.084       .  S
C441        C442   1.409   1_455  A
C442        N446   1.428       .  S
C443        C448   1.406   1_455  A
C443        C452   1.400       .  A
N444        O459   1.262       .  A
N444        O460   1.262       .  A
N446        O457   1.262       .  A
N446        O458   1.262       .  A
C448        C449   1.401       .  A
C448        N453   1.428       .  S
C449        C450   1.407   1_655  A
C449        H454   1.084       .  S
C450        C451   1.416       .  A
C451        C452   1.402       .  A
C451        N455   1.429       .  S
C452        H456   1.084       .  S
N453        O463   1.262       .  A
N453        O464   1.262   1_655  A
N455        O461   1.262       .  A
N455        O462   1.262       .  A
C465        C466   1.407       .  A
C465        C470   1.402       .  A
C465        H475   1.083       .  S
C466        C467   1.414   1_455  A
C466        C471   1.491   1_455  S
C467        C468   1.401       .  A
C467        N472   1.430       .  S
C468        C469   1.400   1_655  A
C468        H473   1.084       .  S
C469        C470   1.406       .  A
C470        N474   1.429       .  S
C471        C476   1.409   1_655  A
C471        C480   1.401       .  A
N472        O487   1.262       .  A
N472        O488   1.262       .  A
N474        O485   1.262       .  A
N474        O486   1.262       .  A
C476        C477   1.403       .  A
C476        N481   1.429       .  S
C477        C478   1.409   1_455  A
C477        H482   1.083       .  S
C478        C479   1.419       .  A
C479        C480   1.403       .  A
C479        N483   1.429       .  S
C480        H484   1.083       .  S
N481        O491   1.262       .  A
N481        O492   1.262   1_455  A
N483        O489   1.261       .  A
N483        O490   1.261       .  A
