geometry optimzed in LAMMPS
_audit_creation_date              2020-11-30 
_audit_creation_method            'lammps2cif' 
_symmetry_space_group_name_H-M    'P1' 
_symmetry_Int_Tables_number       1 
_symmetry_cell_setting            triclinic 
loop_ 
_symmetry_equiv_pos_as_xyz 
  x,y,z 
_cell_length_a                    46.67292329 
_cell_length_b                    34.6387968683788 
_cell_length_c                    44.28100611954723 
_cell_angle_alpha                 90.32858875385992 
_cell_angle_beta                  89.39404637106786 
_cell_angle_gamma                 89.20402299234398 
loop_ 
_atom_site_label 
_atom_site_type_symbol 
_atom_site_fract_x 
_atom_site_fract_y 
_atom_site_fract_z 
_atom_site_charge 
O1          O  0.47706311  0.23600214  0.43729463    -0.76500
C2          C  0.50175165  0.15206691  0.50052869     0.84600
O3          O  0.43316819  0.28435969  0.02311812    -0.77600
O4          O  0.02277088  0.22473932  0.06578839    -0.79100
O5          O  0.06660966  0.28481803  0.47686346    -0.78900
O6          O  0.01032454  0.28292125  0.43098001    -0.77500
Zn7        Zn  0.47305744  0.22727662  0.48082273     1.55700
O8          O  0.07003109  0.22635661  0.01069477    -0.78900
Cd9        Cd  0.02270766  0.29470051  0.47382489     1.59700
Cd10       Cd  0.47720058  0.29332588  0.02688347     1.59600
O11         O  0.01565171  0.35277300  0.48224309    -0.78900
O12         O  0.49975789  0.26125060  0.50062682    -1.89400
Cd13       Cd  0.02763341  0.21556618  0.02109810     1.59900
O14         O  0.48540856  0.35137850  0.01927612    -0.78800
O15         O  0.02007445  0.15781568  0.01278317    -0.77500
C16         C  0.41896269  0.26195560  0.50982213     0.85000
C17         C  0.49221028  0.25748658  0.42064283     0.84700
O18         O  0.48150121  0.17056438  0.48778657    -0.76500
C19         C  0.08183441  0.25121353  0.99381768     0.85500
O20         O  0.43171619  0.23813107  0.49216621    -0.76600
C21         C  0.00041229  0.36162117  0.00342488     0.85600
C22         C  0.00709603  0.24735594  0.08161092     0.86000
O23         O  0.48879847  0.28106978  0.06994117    -0.79000
O24         O  0.01905767  0.32946345  0.26720548    -0.76500
C25         C  0.99276757  0.24543643  0.33163449     0.84600
O26         O  0.07024923  0.21231084  0.24017335    -0.77600
O27         O  0.48497166  0.14706058  0.26792690    -0.79100
O28         O  0.43233424  0.26349786  0.23183400    -0.78900
O29         O  0.48148892  0.33248726  0.23651646    -0.77500
Zn30       Zn  0.02431179  0.27277636  0.27643718     1.55700
O31         O  0.43161103  0.21287198  0.26258987    -0.78900
Cd32       Cd  0.47556487  0.27476157  0.22765191     1.59700
Cd33       Cd  0.02771761  0.20440953  0.22889229     1.59600
O34         O  0.48740990  0.26770552  0.18416233    -0.78900
O35         O  0.00103697  0.23925441  0.25195863    -1.89400
Cd36       Cd  0.47440316  0.20496948  0.27380852     1.59900
O37         O  0.02380068  0.21817515  0.18483878    -0.78800
O38         O  0.47761277  0.21928822  0.31811986    -0.77500
C39         C  0.08164065  0.23620899  0.25819401     0.85000
C40         C  0.00175566  0.34844499  0.25074942     0.84700
O41         O  0.01110538  0.26604581  0.31816382    -0.76500
C42         C  0.41884630  0.23777630  0.24632594     0.85500
O43         O  0.06674110  0.26041462  0.27356579    -0.76600
C44         C  0.50599784  0.24688217  0.17048678     0.85600
C45         C  0.50215612  0.12936729  0.24987722     0.86000
O46         O  0.01832392  0.14637526  0.23359378    -0.79000
O47         O  0.26432117  0.33986100  0.02087545    -0.76500
C48         C  0.24393625  0.24717102  0.08136295     0.84600
O49         O  0.32069043  0.23011042  0.49251169    -0.77600
O50         O  0.23114232  0.15747669  0.01348213    -0.79100
O51         O  0.18354869  0.28044231  0.47616163    -0.78900
O52         O  0.23284619  0.34737536  0.48171307    -0.77500
Zn53       Zn  0.27291950  0.28312819  0.02762395     1.55700
O54         O  0.18099108  0.22703710  0.01221590    -0.78900
Cd55       Cd  0.22730663  0.28939297  0.47369400     1.59700
Cd56       Cd  0.27833618  0.22037627  0.48057627     1.59600
O57         O  0.24116573  0.27714173  0.43133176    -0.78900
O58         O  0.25127063  0.24944498  0.00143219    -1.89400
Cd59       Cd  0.22342031  0.21528255  0.02210030     1.59900
O60         O  0.27544856  0.23139838  0.43598889    -0.78800
O61         O  0.22814028  0.22433154  0.06676440    -0.77500
C62         C  0.33214509  0.25184700  0.00871596     0.85000
C63         C  0.24833751  0.35812829  0.00254057     0.84700
O64         O  0.26139786  0.27039073  0.06925395    -0.76500
C65         C  0.16852739  0.25914825  0.49321415     0.85500
O66         O  0.31614640  0.27554048  0.02341362    -0.76600
C67         C  0.25992607  0.25394026  0.42045566     0.85600
C68         C  0.24796892  0.14576092  0.49970254     0.86000
O69         O  0.26852341  0.16244106  0.48609781    -0.79000
O70         O  0.26937885  0.33365341  0.26399606    -0.76500
C71         C  0.25850011  0.24595937  0.33125519     0.84600
O72         O  0.31759725  0.21511842  0.22942845    -0.77600
O73         O  0.23520086  0.15058218  0.27056553    -0.79100
O74         O  0.18018689  0.26447832  0.24183877    -0.78900
O75         O  0.22949960  0.33488628  0.23698358    -0.77500
Zn76       Zn  0.27735671  0.27691443  0.27141634     1.55700
O77         O  0.18395179  0.21751439  0.27577994    -0.78900
Cd78       Cd  0.22236952  0.27645225  0.23082443     1.59700
Cd79       Cd  0.27385291  0.20784870  0.22509784     1.59600
O80         O  0.22752460  0.26565227  0.18628075    -0.78900
O81         O  0.25064603  0.24280520  0.25187007    -1.89400
Cd82       Cd  0.22794093  0.20879346  0.27889993     1.59900
O83         O  0.26265177  0.22081241  0.18231551    -0.78800
O84         O  0.24067627  0.22162440  0.32140311    -0.77500
C85         C  0.33142912  0.23954548  0.24482507     0.85000
C86         C  0.24965219  0.35217793  0.25041179     0.84700
O87         O  0.27304383  0.26823671  0.31469323    -0.76500
C88         C  0.16893415  0.24024658  0.25971615     0.85500
O89         O  0.31882824  0.26498923  0.26116925    -0.76600
C90         C  0.24417621  0.24362663  0.17103763     0.85600
C91         C  0.25055330  0.13234650  0.25110943     0.86000
O92         O  0.26615847  0.14995982  0.23205873    -0.79000
N93         N  0.50166890  0.47011716  0.46664945    -0.34600
N94         N  0.49984445  0.05252336  0.46626026    -0.55200
N95         N  0.50655190  0.04826158  0.03552146    -0.34600
N96         N  0.50148031  0.46761775  0.03588362    -0.55200
C97         C  0.49484823  0.47633779  0.43711834     0.29000
C98         C  0.49439287  0.43346020  0.47353755     0.29000
C99         C  0.50123042  0.08613136  0.03006382     0.29000
C100        C  0.50268158  0.04239289  0.06575365     0.29000
C101        C  0.50293909  0.04722185  0.43591321     0.37600
C102        C  0.50426092  0.09044566  0.47180981     0.37600
C103        C  0.50726265  0.43016495  0.02892521     0.37600
C104        C  0.50795181  0.47267530  0.06560855     0.37600
C105        C  0.48322794  0.44306850  0.42525283    -0.19900
C106        C  0.48300357  0.41611965  0.44803253    -0.19900
C107        C  0.49414261  0.10454351  0.05712554    -0.19900
C108        C  0.49515769  0.07715370  0.07947769    -0.17900
C109        C  0.50922470  0.08201394  0.42228589    -0.20900
C110        C  0.51012375  0.10922736  0.44487337    -0.20900
C111        C  0.51732827  0.41138786  0.05443685    -0.20900
C112        C  0.51787196  0.43821584  0.07745913    -0.20900
C113        C  0.49826683  0.51152818  0.42088379    -0.16300
C114        C  0.49941620  0.41417445  0.50144789    -0.16300
C115        C  0.50534587  0.50829025  0.08184459    -0.16300
C116        C  0.50161795  0.10929346  0.50034572    -0.16300
H117        H  0.47496351  0.43885347  0.40279449     0.16600
H118        H  0.47500647  0.38704729  0.44604299     0.16600
H119        H  0.48876204  0.13475703  0.06053980     0.16600
H120        H  0.49064281  0.08241819  0.10312828     0.16600
H121        H  0.51266579  0.08750723  0.39855843     0.14900
H122        H  0.51443452  0.13956712  0.44169820     0.14900
H123        H  0.52402069  0.38145806  0.05624591     0.14900
H124        H  0.52555344  0.43304355  0.10001948     0.14900
H125        H  0.51314094  0.48820087  0.48076461     0.28200
H126        H  0.51502575  0.02880109  0.01976395     0.28200
N127        N  0.00580576  0.44785682  0.28511625    -0.34600
N128        N  0.00109005  0.44758406  0.21664551    -0.55200
N129        N  0.00285463  0.02902397  0.21586424    -0.34600
N130        N  0.00130941  0.02959689  0.28508685    -0.55200
C131        C  0.99971426  0.41051180  0.27910645     0.29000
C132        C  0.00146312  0.45386475  0.31532731     0.29000
C133        C  0.99636992  0.02272829  0.18623060     0.29000
C134        C  0.99653938  0.06644794  0.22251523     0.29000
C135        C  0.00585375  0.40966484  0.22223421     0.37600
C136        C  0.00410397  0.45232909  0.18627433     0.37600
C137        C  0.00818172  0.02425505  0.31464065     0.37600
C138        C  0.00670854  0.06698715  0.27860410     0.37600
C139        C  0.99150479  0.39261505  0.30578544    -0.19900
C140        C  0.99277707  0.41977274  0.32850557    -0.19900
C141        C  0.98599607  0.05679380  0.17401637    -0.19900
C142        C  0.98621359  0.08428025  0.19670554    -0.19900
C143        C  0.01195997  0.39037430  0.19529380    -0.20900
C144        C  0.01068539  0.41720042  0.17267608    -0.20900
C145        C  0.01815242  0.05834991  0.32674773    -0.20900
C146        C  0.01695540  0.08538622  0.30417698    -0.20900
C147        C  0.00278185  0.39124020  0.25072062    -0.16300
C148        C  0.00580611  0.48898550  0.33147180    -0.16300
C149        C  0.00128725  0.08570225  0.25061339    -0.16300
C150        C  0.99955423  0.48754065  0.17049309    -0.16300
H151        H  0.98523902  0.36289575  0.30872348     0.16600
H152        H  0.98759429  0.41490939  0.35201222     0.16600
H153        H  0.97838948  0.06130774  0.15133778     0.16600
H154        H  0.97926440  0.11405585  0.19445261     0.16600
H155        H  0.01664883  0.35993104  0.19209399     0.14900
H156        H  0.01415376  0.41123873  0.14895995     0.14900
H157        H  0.02617507  0.06318074  0.34921307     0.14900
H158        H  0.02340893  0.11516560  0.30627488     0.14900
H159        H  0.01518741  0.46663793  0.26981430     0.28200
H160        H  0.01339659  0.01014065  0.23029745     0.28200
N161        N  0.24516549  0.46468855  0.46651723    -0.34600
N162        N  0.24840002  0.45868946  0.03585122    -0.55200
N163        N  0.24666627  0.04063691  0.03361649    -0.34600
N164        N  0.24608201  0.04601538  0.46539942    -0.55200
C165        C  0.25084843  0.42705907  0.47248063     0.29000
C166        C  0.24869636  0.47027331  0.43614538     0.29000
C167        C  0.24953354  0.03575469  0.06400538     0.29000
C168        C  0.25233890  0.07797833  0.02733869     0.29000
C169        C  0.24412505  0.42065470  0.03071376     0.37600
C170        C  0.24275270  0.46532208  0.06566493     0.37600
C171        C  0.24098857  0.04048194  0.43546681     0.37600
C172        C  0.24264918  0.08426082  0.47108808     0.37600
C173        C  0.25805530  0.40847027  0.44547916    -0.19900
C174        C  0.25612551  0.43526694  0.42275756    -0.19900
C175        C  0.25681881  0.07054047  0.07711418    -0.19900
C176        C  0.25880647  0.09698744  0.05414112    -0.19900
C177        C  0.23604133  0.40304928  0.05756395    -0.20900
C178        C  0.23518034  0.43125046  0.07957552    -0.20900
C179        C  0.23475131  0.07562539  0.42208216    -0.20900
C180        C  0.23580619  0.10319635  0.44451004    -0.20900
C181        C  0.24820115  0.40106881  0.00254056    -0.16300
C182        C  0.24424770  0.50581404  0.42033535    -0.16300
C183        C  0.25014958  0.09642889  0.99867145    -0.16300
C184        C  0.24468238  0.50168931  0.08051128    -0.16300
H185        H  0.26384146  0.37838646  0.44214337     0.16600
H186        H  0.25987671  0.42894195  0.39918929     0.16600
H187        H  0.26071301  0.07623442  0.10074151     0.16600
H188        H  0.26423494  0.12705049  0.05702176     0.16600
H189        H  0.23090121  0.37301927  0.06099867     0.14900
H190        H  0.22941580  0.42712997  0.10306128     0.14900
H191        H  0.23033061  0.08110676  0.39854496     0.14900
H192        H  0.23202643  0.13382713  0.44150096     0.14900
H193        H  0.23625850  0.48400772  0.48211322     0.28200
H194        H  0.23843265  0.02107090  0.01829530     0.28200
N195        N  0.25217481  0.45197542  0.28444838    -0.34600
N196        N  0.25017578  0.45131909  0.21586093    -0.55200
N197        N  0.25197430  0.03248426  0.21615530    -0.34600
N198        N  0.24897968  0.03301879  0.28507288    -0.55200
C199        C  0.24691528  0.41434179  0.27859917     0.29000
C200        C  0.24810017  0.45801409  0.31467817     0.29000
C201        C  0.24818767  0.02674726  0.18587671     0.29000
C202        C  0.24695792  0.07033670  0.22237586     0.29000
C203        C  0.25403372  0.41326531  0.22169102     0.37600
C204        C  0.25526782  0.45625297  0.18578217     0.37600
C205        C  0.25428047  0.02753032  0.31495052     0.37600
C206        C  0.25409894  0.07060690  0.27923508     0.37600
C207        C  0.23952487  0.39626124  0.30548349    -0.19900
C208        C  0.24042270  0.42366774  0.32811981    -0.19900
C209        C  0.24118657  0.06179987  0.17279964    -0.19900
C210        C  0.23990523  0.08890777  0.19566402    -0.19900
C211        C  0.26113340  0.39386279  0.19505730    -0.20900
C212        C  0.26190374  0.42090159  0.17247255    -0.20900
C213        C  0.26237655  0.06182088  0.32820849    -0.20900
C214        C  0.26236849  0.08897922  0.30572840    -0.20900
C215        C  0.25020036  0.39501104  0.25021065    -0.16300
C216        C  0.25210282  0.49330977  0.33064164    -0.16300
C217        C  0.25047330  0.08937327  0.25087363    -0.16300
C218        C  0.25243371  0.49181562  0.16987622    -0.16300
H219        H  0.23420269  0.36622406  0.30860539     0.16600
H220        H  0.23566510  0.41887220  0.35174337     0.16600
H221        H  0.23728779  0.06785348  0.14934172     0.16600
H222        H  0.23463920  0.11914140  0.19264155     0.16600
H223        H  0.26534842  0.36325904  0.19211039     0.14900
H224        H  0.26651788  0.41491536  0.14890099     0.14900
H225        H  0.26804254  0.06671886  0.35154188     0.14900
H226        H  0.26826182  0.11885236  0.30865766     0.14900
H227        H  0.26102236  0.47099056  0.26905766     0.28200
H228        H  0.26061682  0.01304102  0.23140982     0.28200
C229        C  0.25752124  0.49168528  0.36452408    -0.14400
C230        C  0.23937872  0.50637435  0.38615022    -0.29600
H231        H  0.27734778  0.97730238  0.37111128     0.14600
H232        H  0.22028623  0.52145961  0.37843180     0.15200
C233        C  0.23914071  0.50460924  0.11440584    -0.14400
C234        C  0.25749509  0.49102710  0.13568247    -0.29600
H235        H  0.21909995  0.51812957  0.12161613     0.14600
H236        H  0.27666865  0.97471354  0.12785051     0.15200
C237        C  0.49462928  0.51311084  0.38659063    -0.14400
C238        C  0.00942756  0.48685709  0.36576937    -0.29600
H239        H  0.48259868  0.03751795  0.37702909     0.14600
H240        H  0.02168991  0.46249917  0.37436629     0.15200
C241        C  0.50899958  0.51031725  0.11617856    -0.14400
C242        C  0.99542993  0.48502834  0.13629617    -0.29600
H243        H  0.02183571  0.03016622  0.12324784     0.14600
H244        H  0.48404010  0.46264346  0.12800295     0.15200
C245        C  0.26275192  0.25193097  0.38906783    -0.11300
C246        C  0.26200685  0.24901515  0.36245765    -0.12800
C247        C  0.24232261  0.24627935  0.11288389    -0.11300
C248        C  0.24236551  0.24500318  0.13958870    -0.12800
C249        C  0.36223515  0.23809784  0.24415587    -0.11300
C250        C  0.38809894  0.23735998  0.24468600    -0.12800
C251        C  0.13818924  0.23802345  0.26119695    -0.11300
C252        C  0.11235218  0.23659199  0.26064793    -0.12800
C253        C  0.36291237  0.25496732  0.01075039    -0.11300
C254        C  0.38802308  0.26139915  0.51139039    -0.12800
C255        C  0.13783779  0.26109106  0.49115100    -0.11300
C256        C  0.11263375  0.25175260  0.99205161    -0.12800
C257        C  0.48955541  0.25338280  0.38928475    -0.11300
C258        C  0.98954254  0.25085248  0.36287187    -0.12800
C259        C  0.00967527  0.24533408  0.11292141    -0.11300
C260        C  0.50873051  0.25193350  0.13927593    -0.12800
O261        O  0.47746512  0.23236096  0.93765067    -0.76500
C262        C  0.50324481  0.14825743  0.00217450     0.84600
O263        O  0.43273883  0.28611196  0.52571197    -0.77600
O264        O  0.02291557  0.23852308  0.56702166    -0.79100
O265        O  0.06731047  0.27565081  0.97877009    -0.78900
O266        O  0.01124190  0.27414338  0.93251164    -0.77500
Zn267      Zn  0.47423792  0.22292721  0.98117571     1.55700
O268        O  0.06966625  0.23817414  0.51113542    -0.78900
Cd269      Cd  0.02336449  0.28544572  0.97532703     1.59700
Cd270      Cd  0.47693728  0.29525075  0.52874789     1.59600
O271        O  0.01566516  0.34360219  0.98376070    -0.78900
O272        O  0.50060571  0.25791635  0.00044425    -1.89400
Cd273      Cd  0.02760057  0.22739970  0.52238658     1.59900
O274        O  0.48443786  0.35348074  0.52101144    -0.78800
O275        O  0.02081188  0.16928920  0.51537287    -0.77500
C276        C  0.41971672  0.25815855  0.00903912     0.85000
C277        C  0.49183502  0.25481516  0.92100721     0.84700
O278        O  0.48366116  0.16630046  0.98797549    -0.76500
C279        C  0.08125460  0.26163985  0.49293244     0.85500
O280        O  0.43277400  0.23272520  0.99304992    -0.76600
C281        C  0.00012880  0.37117297  0.50142818     0.85600
C282        C  0.00681793  0.26143721  0.58212641     0.86000
O283        O  0.48998944  0.28176918  0.57143381    -0.79000
O284        O  0.01769281  0.33916336  0.77137723    -0.76500
C285        C  0.99169015  0.24848878  0.83227808     0.84600
O286        O  0.06938498  0.22498866  0.73925935    -0.77600
O287        O  0.48260677  0.14958567  0.76779448    -0.79100
O288        O  0.43314266  0.26713250  0.73029733    -0.78900
O289        O  0.48323311  0.33443791  0.73405808    -0.77500
Zn290      Zn  0.02300476  0.28158013  0.77879940     1.55700
O291        O  0.43078914  0.21835084  0.76272014    -0.78900
Cd292      Cd  0.47676692  0.27645244  0.72639919     1.59700
Cd293      Cd  0.02696093  0.21585536  0.72851096     1.59600
O294        O  0.48953060  0.26673677  0.68346520    -0.78900
O295        O  0.00019311  0.24930157  0.75270074    -1.89400
Cd296      Cd  0.47336751  0.20790702  0.77364559     1.59900
O297        O  0.02209247  0.23096289  0.68480490    -0.78800
O298        O  0.47664009  0.22094432  0.81798608    -0.77500
C299        C  0.08067324  0.24745594  0.75843115     0.85000
C300        C  0.00076771  0.35878629  0.75487128     0.84700
O301        O  0.00986999  0.27067541  0.82014385    -0.76500
C302        C  0.41880723  0.24317285  0.74574945     0.85500
O303        O  0.06564336  0.26985057  0.77531300    -0.76600
C304        C  0.50846427  0.24544928  0.67077638     0.85600
C305        C  0.50077150  0.13147093  0.75113411     0.86000
O306        O  0.01920848  0.15716469  0.73266504    -0.79000
O307        O  0.26432172  0.34677859  0.51894237    -0.76500
C308        C  0.24421714  0.25495354  0.58074292     0.84600
O309        O  0.32176844  0.22583963  0.99177568    -0.77600
O310        O  0.22856307  0.16467094  0.51408157    -0.79100
O311        O  0.18391446  0.27264624  0.97720688    -0.78900
O312        O  0.23291823  0.34048919  0.98352145    -0.77500
Zn313      Zn  0.27253744  0.29009023  0.52629514     1.55700
O314        O  0.17974882  0.23634830  0.51228589    -0.78900
Cd315      Cd  0.22767001  0.28260272  0.97460861     1.59700
Cd316      Cd  0.27960723  0.21486802  0.98007052     1.59600
O317        O  0.24154665  0.27152460  0.93191295    -0.78900
O318        O  0.25032111  0.25614256  0.50102228    -1.89400
Cd319      Cd  0.22201089  0.22304601  0.52216701     1.59900
O320        O  0.27633630  0.22634051  0.93550976    -0.78800
O321        O  0.22773152  0.23244010  0.56667315    -0.77500
C322        C  0.33134283  0.25693419  0.50845333     0.85000
C323        C  0.24837348  0.36506114  0.50057289     0.84700
O324        O  0.26162273  0.27778903  0.56810531    -0.76500
C325        C  0.16929545  0.25023098  0.99377792     0.85500
O326        O  0.31558106  0.28194078  0.52200040    -0.76600
C327        C  0.26046040  0.24898318  0.92045548     0.85600
C328        C  0.25072779  0.13920651  0.99889458     0.86000
O329        O  0.27094934  0.15651741  0.98522654    -0.79000
O330        O  0.26802383  0.34020625  0.76669945    -0.76500
C331        C  0.25818623  0.24779648  0.83099488     0.84600
O332        O  0.31761308  0.22322172  0.72980510    -0.77600
O333        O  0.23278483  0.15800918  0.76712543    -0.79100
O334        O  0.17984762  0.27291809  0.74041169    -0.78900
O335        O  0.22972156  0.34175312  0.73722030    -0.77500
Zn336      Zn  0.27665738  0.28328786  0.77248618     1.55700
O337        O  0.18271378  0.22661219  0.77494405    -0.78900
Cd338      Cd  0.22238397  0.28383053  0.73003600     1.59700
Cd339      Cd  0.27401608  0.21563450  0.72485497     1.59600
O340        O  0.22834003  0.27359084  0.68548102    -0.78900
O341        O  0.25020023  0.25006466  0.75150093    -1.89400
Cd342      Cd  0.22653131  0.21578164  0.77726789     1.59900
O343        O  0.26366523  0.22899853  0.68195684    -0.78800
O344        O  0.23995376  0.22480396  0.82008770    -0.77500
C345        C  0.33126964  0.24774305  0.74526587     0.85000
C346        C  0.24897221  0.35885545  0.75217575     0.84700
O347        O  0.27267547  0.27135468  0.81547596    -0.76500
C348        C  0.16811177  0.24960433  0.75869119     0.85500
O349        O  0.31844969  0.27287153  0.76176295    -0.76600
C350        C  0.24533501  0.25180110  0.67044223     0.85600
C351        C  0.24944327  0.13994321  0.74880793     0.86000
O352        O  0.26640898  0.15760275  0.73114169    -0.79000
N353        N  0.50348278  0.46825661  0.96628214    -0.34600
N354        N  0.50175226  0.04890660  0.96716297    -0.55200
N355        N  0.50310561  0.05270088  0.53453610    -0.34600
N356        N  0.49943693  0.47042148  0.53627593    -0.55200
C357        C  0.49625430  0.47486923  0.93689321     0.29000
C358        C  0.49678734  0.43127773  0.97285136     0.29000
C359        C  0.49857904  0.09063831  0.52877282     0.29000
C360        C  0.49921885  0.04739177  0.56481113     0.29000
C361        C  0.50436369  0.04412756  0.93668817     0.37600
C362        C  0.50621288  0.08677491  0.97303956     0.37600
C363        C  0.50497999  0.43285020  0.52954243     0.37600
C364        C  0.50634843  0.47575254  0.56584737     0.37600
C365        C  0.48500837  0.44151613  0.92479010    -0.19900
C366        C  0.48544258  0.41410661  0.94725577    -0.19900
C367        C  0.49193845  0.10969124  0.55570237    -0.19900
C368        C  0.49240562  0.08257567  0.57828527    -0.17900
C369        C  0.51041475  0.07916416  0.92335021    -0.20900
C370        C  0.51168918  0.10596537  0.94619353    -0.20900
C371        C  0.51535596  0.41431118  0.55501820    -0.20900
C372        C  0.51632496  0.44139450  0.57779264    -0.20900
C373        C  0.49911289  0.51044187  0.92099782    -0.16300
C374        C  0.50196498  0.41172450  0.00064404    -0.16300
C375        C  0.50418727  0.51154531  0.58185029    -0.16300
C376        C  0.50376046  0.10530885  0.00177139    -0.16300
H377        H  0.47658189  0.43753102  0.90238482     0.16600
H378        H  0.47783393  0.38486733  0.94502552     0.16600
H379        H  0.48734151  0.14016726  0.55888901     0.16600
H380        H  0.48815742  0.08831103  0.60194432     0.16600
H381        H  0.51355969  0.08507216  0.89964087     0.14900
H382        H  0.51600806  0.13633192  0.94322308     0.14900
H383        H  0.52210955  0.38442142  0.55694283     0.14900
H384        H  0.52447297  0.43651028  0.60019205     0.14900
H385        H  0.51474673  0.48641525  0.98051403     0.28200
H386        H  0.51117772  0.03274443  0.51896270     0.28200
N387        N  0.00640211  0.45984554  0.78676373    -0.34600
N388        N  0.00306087  0.45678326  0.71850681    -0.55200
N389        N  0.00440507  0.03870123  0.71508691    -0.34600
N390        N  0.00501832  0.04031050  0.78427124    -0.55200
C391        C  0.00044596  0.42216651  0.78209774     0.29000
C392        C  0.00282884  0.46761167  0.81685358     0.29000
C393        C  0.99681941  0.03193874  0.68583241     0.29000
C394        C  0.99781487  0.07604289  0.72170248     0.29000
C395        C  0.00670155  0.41888393  0.72518172     0.37600
C396        C  0.00670143  0.46011390  0.68804215     0.37600
C397        C  0.01157029  0.03580610  0.81395452     0.37600
C398        C  0.00943283  0.07779127  0.77746448     0.37600
C399        C  0.99322954  0.40560674  0.80958242    -0.19900
C400        C  0.99511667  0.43395810  0.83139086    -0.19900
C401        C  0.98546282  0.06554155  0.67382526    -0.19900
C402        C  0.98613154  0.09327622  0.69629437    -0.19900
C403        C  0.01284144  0.39830602  0.69880036    -0.20900
C404        C  0.01269768  0.42421830  0.67547622    -0.20900
C405        C  0.02003262  0.07075473  0.82598461    -0.20900
C406        C  0.01864200  0.09722266  0.80304620    -0.20900
C407        C  0.00286989  0.40162832  0.75415104    -0.16300
C408        C  0.00818439  0.50367482  0.83144097    -0.16300
C409        C  0.00326410  0.09578074  0.74938395    -0.16300
C410        C  0.00294232  0.49470170  0.67117724    -0.16300
H411        H  0.98759938  0.37589628  0.81374312     0.16600
H412        H  0.99159820  0.42964258  0.85522122     0.16600
H413        H  0.97676818  0.06946103  0.65152058     0.16600
H414        H  0.97853514  0.12279695  0.69420722     0.16600
H415        H  0.01691392  0.36760031  0.69642156     0.14900
H416        H  0.01650478  0.41721594  0.65195207     0.14900
H417        H  0.02646722  0.07679811  0.84887692     0.14900
H418        H  0.02372878  0.12750900  0.80509515     0.14900
H419        H  0.01532651  0.47768617  0.77055034     0.28200
H420        H  0.01577377  0.02016251  0.72911943     0.28200
N421        N  0.24673867  0.45694164  0.96748634    -0.34600
N422        N  0.24696424  0.46471232  0.53558215    -0.55200
N423        N  0.24370644  0.04689341  0.53394290    -0.34600
N424        N  0.24925250  0.03907341  0.96502094    -0.55200
C425        C  0.25213470  0.41938328  0.97398757     0.29000
C426        C  0.25114315  0.46154478  0.93723140     0.29000
C427        C  0.24790199  0.04136852  0.56406836     0.29000
C428        C  0.24991070  0.08409657  0.52774282     0.29000
C429        C  0.24373325  0.42664710  0.52964164     0.37600
C430        C  0.24120992  0.47007120  0.56557111     0.37600
C431        C  0.24400889  0.03321670  0.93515689     0.37600
C432        C  0.24656654  0.07748267  0.97028939     0.37600
C433        C  0.26023598  0.40015393  0.94748120    -0.19900
C434        C  0.25923233  0.42653193  0.92442626    -0.19900
C435        C  0.25665205  0.07557934  0.57706920    -0.19900
C436        C  0.25803852  0.10239784  0.55428154    -0.19900
C437        C  0.23630120  0.40780905  0.55622276    -0.20900
C438        C  0.23479191  0.43517861  0.57881225    -0.20900
C439        C  0.23837717  0.06813976  0.92130698    -0.20900
C440        C  0.24013076  0.09612813  0.94341948    -0.20900
C441        C  0.24781721  0.40803741  0.50098183    -0.16300
C442        C  0.24763925  0.49624330  0.92060451    -0.16300
C443        C  0.24681769  0.10298319  0.49941232    -0.16300
C444        C  0.24159083  0.50611170  0.58114204    -0.16300
H445        H  0.26627279  0.37005043  0.94479235     0.16600
H446        H  0.26452177  0.42071770  0.90098803     0.16600
H447        H  0.26189234  0.08063932  0.60046222     0.16600
H448        H  0.26422499  0.13219646  0.55706954     0.16600
H449        H  0.23181029  0.37749412  0.55913375     0.14900
H450        H  0.22916512  0.43000616  0.60219893     0.14900
H451        H  0.23351492  0.07298517  0.89778116     0.14900
H452        H  0.23666606  0.12676364  0.94009667     0.14900
H453        H  0.23753297  0.47688632  0.98229964     0.28200
H454        H  0.23419892  0.02794560  0.51895182     0.28200
N455        N  0.25249797  0.45897414  0.78558733    -0.34600
N456        N  0.24814782  0.45734040  0.71696881    -0.55200
N457        N  0.25140971  0.03930312  0.71529043    -0.34600
N458        N  0.24950663  0.04147192  0.78418392    -0.55200
C459        C  0.24707344  0.42129788  0.78026666     0.29000
C460        C  0.24948974  0.46564741  0.81589862     0.29000
C461        C  0.24799011  0.03276041  0.68507221     0.29000
C462        C  0.24685843  0.07741475  0.72074258     0.29000
C463        C  0.25271313  0.41952868  0.72314578     0.37600
C464        C  0.25273335  0.46180511  0.68674537     0.37600
C465        C  0.25483857  0.03714081  0.81418244     0.37600
C466        C  0.25351324  0.07917339  0.77769501     0.37600
C467        C  0.24070288  0.40362828  0.80757671    -0.19900
C468        C  0.24252452  0.43134839  0.82993405    -0.19900
C469        C  0.24184885  0.06768034  0.67128109    -0.19900
C470        C  0.24066369  0.09546436  0.69361781    -0.19900
C471        C  0.25971787  0.39984907  0.69657116    -0.20900
C472        C  0.25971626  0.42645883  0.67368689    -0.20900
C473        C  0.26165351  0.07242687  0.82680377    -0.20900
C474        C  0.26100502  0.09880883  0.80387638    -0.20900
C475        C  0.24957471  0.40164271  0.75192228    -0.16300
C476        C  0.25464257  0.50143598  0.83098522    -0.16300
C477        C  0.24979037  0.09704862  0.74900390    -0.16300
C478        C  0.24911893  0.49693979  0.67052296    -0.16300
H479        H  0.23567211  0.37359325  0.81121106     0.16600
H480        H  0.23915756  0.42633954  0.85372656     0.16600
H481        H  0.23854633  0.07333428  0.64768208     0.16600
H482        H  0.23607791  0.12577690  0.68999055     0.16600
H483        H  0.26445466  0.36934345  0.69384851     0.14900
H484        H  0.26407600  0.42023741  0.65009707     0.14900
H485        H  0.26668687  0.07872301  0.85009255     0.14900
H486        H  0.26589206  0.12909557  0.80636424     0.14900
H487        H  0.26091622  0.47756908  0.76959371     0.28200
H488        H  0.25933542  0.02016057  0.73110834     0.28200
C489        C  0.26057134  0.50305299  0.86480152    -0.14400
C490        C  0.24180001  0.49293559  0.88694772    -0.29600
H491        H  0.27804297  0.01670214  0.87173827     0.14600
H492        H  0.22138585  0.48090825  0.88052696     0.15200
C493        C  0.23548834  0.50787514  0.61497870    -0.14400
C494        C  0.25431338  0.49604491  0.63638834    -0.29600
H495        H  0.21485830  0.51975179  0.62207283     0.14600
H496        H  0.27466182  0.97833830  0.62720572     0.15200
C497        C  0.49485587  0.51293288  0.88683325    -0.14400
C498        C  0.01208634  0.50595856  0.86559493    -0.29600
H499        H  0.48275121  0.03641717  0.87847876     0.14600
H500        H  0.03214691  0.51753502  0.87360541     0.15200
C501        C  0.50769557  0.51373840  0.61620921    -0.14400
C502        C  0.99910029  0.49112765  0.63699225    -0.29600
H503        H  0.02187267  0.03872106  0.62315626     0.14600
H504        H  0.48286444  0.46589837  0.62800260     0.15200
C505        C  0.26320521  0.24824970  0.88896931    -0.11300
C506        C  0.26223187  0.24765334  0.86225301    -0.12800
C507        C  0.24347201  0.25419242  0.61227858    -0.11300
C508        C  0.24387932  0.25314625  0.63897696    -0.12800
C509        C  0.36211917  0.24650576  0.74446015    -0.11300
C510        C  0.38800073  0.24476982  0.74451721    -0.12800
C511        C  0.13730697  0.24880725  0.76054236    -0.11300
C512        C  0.11142559  0.24807708  0.76050036    -0.12800
C513        C  0.36212702  0.25947089  0.51079562    -0.11300
C514        C  0.38880280  0.25714143  0.01085416    -0.12800
C515        C  0.13852387  0.25137450  0.99202835    -0.11300
C516        C  0.11198501  0.26200850  0.49092039    -0.12800
C517        C  0.48843693  0.25186443  0.88973440    -0.11300
C518        C  0.98907083  0.24950150  0.86371604    -0.12800
C519        C  0.00887408  0.26072410  0.61361904    -0.11300
C520        C  0.51157503  0.24916757  0.63943437    -0.12800
O521        O  0.47525802  0.73412099  0.43851438    -0.76500
C522        C  0.50194959  0.65179218  0.50157260     0.84600
O523        O  0.43382096  0.78284496  0.02814098    -0.77600
O524        O  0.02652290  0.72313140  0.06458071    -0.79100
O525        O  0.06535001  0.78327958  0.47220439    -0.78900
O526        O  0.00597742  0.78142415  0.42949138    -0.77500
Zn527      Zn  0.47233078  0.72639054  0.48216854     1.55700
O528        O  0.07048568  0.72531005  0.00691641    -0.78900
Cd529      Cd  0.02106188  0.79401705  0.47147604     1.59700
Cd530      Cd  0.47809608  0.79226865  0.02917156     1.59600
O531        O  0.01461124  0.85269217  0.48030161    -0.78900
O532        O  0.49955146  0.76102559  0.50060337    -1.89400
Cd533      Cd  0.02846660  0.71522065  0.01943401     1.59900
O534        O  0.48524628  0.85028065  0.02023789    -0.78800
O535        O  0.01979924  0.65820852  0.01140880    -0.77500
C536        C  0.41852457  0.76134500  0.51168360     0.85000
C537        C  0.48958286  0.75571219  0.42116787     0.84700
O538        O  0.48128751  0.67002673  0.48936874    -0.76500
C539        C  0.08177161  0.74980343  0.98935133     0.85500
O540        O  0.43099028  0.73696033  0.49425395    -0.76600
C541        C  0.00130928  0.86003854  0.00324976     0.85600
C542        C  0.01202075  0.74577552  0.08155003     0.86000
O543        O  0.49239481  0.77992595  0.07161423    -0.79000
O544        O  0.01552470  0.82834272  0.26830634    -0.76500
C545        C  0.98672630  0.74377936  0.33151609     0.84600
O546        O  0.06907749  0.71193055  0.24432716    -0.77600
O547        O  0.48242294  0.64738347  0.26808396    -0.79100
O548        O  0.43221919  0.76384279  0.22817417    -0.78900
O549        O  0.48222764  0.83184542  0.23531899    -0.77500
Zn550      Zn  0.02084474  0.77170246  0.27789005     1.55700
O551        O  0.42941666  0.71462843  0.26016538    -0.78900
Cd552      Cd  0.47602059  0.77415530  0.22622044     1.59700
Cd553      Cd  0.02728439  0.70335585  0.23073281     1.59600
O554        O  0.49044884  0.76616922  0.18339775    -0.78900
O555        O  0.99899785  0.73808178  0.25187741    -1.89400
Cd556      Cd  0.47181109  0.70549525  0.27330356     1.59900
O557        O  0.02617064  0.71573129  0.18613054    -0.78800
O558        O  0.47372567  0.71915226  0.31791744    -0.77500
C559        C  0.07951705  0.73615231  0.26272593     0.85000
C560        C  0.99927826  0.84717606  0.25059180     0.84700
O561        O  0.00558229  0.76449097  0.31894891    -0.76500
C562        C  0.41765315  0.73916958  0.24272225     0.85500
O563        O  0.06373003  0.76018534  0.27732221    -0.76600
C564        C  0.50982045  0.74524573  0.17101160     0.85600
C565        C  0.50070471  0.62960707  0.25130036     0.86000
O566        O  0.01791841  0.64560033  0.23563969    -0.79000
O567        O  0.26480139  0.84006503  0.02027415    -0.76500
C568        C  0.23990913  0.74914712  0.08096501     0.84600
O569        O  0.32040293  0.73146759  0.49382576    -0.77600
O570        O  0.23238366  0.65754299  0.01318717    -0.79100
O571        O  0.18368712  0.78012248  0.47276128    -0.78900
O572        O  0.23290498  0.84733251  0.48095106    -0.77500
Zn573      Zn  0.27215624  0.78352797  0.02850974     1.55700
O574        O  0.18077285  0.72568564  0.00852729    -0.78900
Cd575      Cd  0.22767798  0.78935093  0.47233232     1.59700
Cd576      Cd  0.27838749  0.72071695  0.48139804     1.59600
O577        O  0.24314799  0.77678330  0.43036611    -0.78900
O578        O  0.25140355  0.74997506  0.00129122    -1.89400
Cd579      Cd  0.22303071  0.71533912  0.02078594     1.59900
O580        O  0.27630379  0.72989202  0.43635334    -0.78800
O581        O  0.22524734  0.72566309  0.06564613    -0.77500
C582        C  0.33209725  0.75227907  0.01232463     0.85000
C583        C  0.24932797  0.85848582  0.00156586     0.84700
O584        O  0.25794244  0.77227211  0.06966135    -0.76500
C585        C  0.16806531  0.75831528  0.48882103     0.85500
O586        O  0.31552750  0.77516398  0.02711731    -0.76600
C587        C  0.26166514  0.75271365  0.42013297     0.85600
C588        C  0.24820905  0.64630638  0.50125092     0.86000
O589        O  0.26908297  0.66289899  0.48812632    -0.79000
O590        O  0.26680051  0.83336375  0.26362385    -0.76500
C591        C  0.25992758  0.74495676  0.33082629     0.84600
O592        O  0.31563960  0.71686367  0.22594670    -0.77600
O593        O  0.23397176  0.65137095  0.27033328    -0.79100
O594        O  0.17738477  0.76450965  0.24458637    -0.78900
O595        O  0.22645580  0.83419520  0.23725298    -0.77500
Zn596      Zn  0.27614180  0.77697145  0.27028253     1.55700
O597        O  0.18258542  0.71797606  0.27860723    -0.78900
Cd598      Cd  0.21918252  0.77600395  0.23147162     1.59700
Cd599      Cd  0.27147063  0.70889917  0.22342411     1.59600
O600        O  0.22237839  0.76551337  0.18667130    -0.78900
O601        O  0.24875834  0.74307191  0.25140041    -1.89400
Cd602      Cd  0.22686001  0.70926799  0.27938041     1.59900
O603        O  0.25838014  0.72223391  0.18104699    -0.78800
O604        O  0.24140744  0.72127765  0.32143669    -0.77500
C605        C  0.32986562  0.74147585  0.24083180     0.85000
C606        C  0.24670387  0.85159897  0.25039109     0.84700
O607        O  0.27400721  0.76732214  0.31385078    -0.76500
C608        C  0.16684667  0.74062868  0.26322087     0.85500
O609        O  0.31752025  0.76651239  0.25779813    -0.76600
C610        C  0.23900425  0.74443670  0.17060797     0.85600
C611        C  0.24899449  0.63323685  0.25054983     0.86000
O612        O  0.26412267  0.65089102  0.23103492    -0.79000
N613        N  0.50069192  0.97039759  0.46598552    -0.34600
N614        N  0.49980295  0.55216430  0.46710183    -0.55200
N615        N  0.50484086  0.54960067  0.03584519    -0.34600
N616        N  0.50164395  0.96647807  0.03563706    -0.55200
C617        C  0.49419719  0.97686209  0.43640578     0.29000
C618        C  0.49288189  0.93389843  0.47278348     0.29000
C619        C  0.49982051  0.58751574  0.03043199     0.29000
C620        C  0.50127107  0.54379361  0.06611134     0.29000
C621        C  0.50190453  0.54710027  0.43661800     0.37600
C622        C  0.50357397  0.59025922  0.47262449     0.37600
C623        C  0.50670890  0.92888003  0.02868899     0.37600
C624        C  0.50857079  0.97129206  0.06525300     0.37600
C625        C  0.48211326  0.94396028  0.42444271    -0.19900
C626        C  0.48136136  0.91693988  0.44720137    -0.19900
C627        C  0.49318320  0.60609225  0.05754502    -0.19900
C628        C  0.49413801  0.57868699  0.07989548    -0.17900
C629        C  0.50674238  0.58224425  0.42287607    -0.20900
C630        C  0.50787737  0.60937593  0.44549886    -0.20900
C631        C  0.51682352  0.90983103  0.05407950    -0.20900
C632        C  0.51808783  0.93660316  0.07703134    -0.20900
C633        C  0.49860659  0.01187132  0.42017171    -0.16300
C634        C  0.49778176  0.91440341  0.50064216    -0.16300
C635        C  0.50652246  0.00686479  0.08149328    -0.16300
C636        C  0.50195019  0.60896711  0.50135411    -0.16300
H637        H  0.47401151  0.94002078  0.40188991     0.16600
H638        H  0.47303182  0.88805311  0.44513032     0.16600
H639        H  0.48823357  0.63642969  0.06099325     0.16600
H640        H  0.49001413  0.58407531  0.10360979     0.16600
H641        H  0.50918295  0.58802428  0.39905241     0.14900
H642        H  0.51139423  0.63988881  0.44220359     0.14900
H643        H  0.52314822  0.87976226  0.05587052     0.14900
H644        H  0.52596833  0.93120464  0.09948403     0.14900
H645        H  0.51239351  0.98813607  0.48015441     0.28200
H646        H  0.51303742  0.53012526  0.01998558     0.28200
N647        N  0.00442874  0.94719911  0.28452654    -0.34600
N648        N  0.99959436  0.94675746  0.21639863    -0.55200
N649        N  0.00240872  0.52923791  0.21637218    -0.34600
N650        N  0.00092778  0.52946999  0.28601469    -0.55200
C651        C  0.99800491  0.90981770  0.27882976     0.29000
C652        C  0.00050176  0.95364912  0.31474576     0.29000
C653        C  0.99565940  0.52297666  0.18680137     0.29000
C654        C  0.99492305  0.56609697  0.22345447     0.29000
C655        C  0.00348646  0.90859646  0.22191247     0.37600
C656        C  0.00274670  0.95148223  0.18603239     0.37600
C657        C  0.00803034  0.52442885  0.31553035     0.37600
C658        C  0.00581982  0.56690376  0.27941171     0.37600
C659        C  0.99001411  0.89236355  0.30575699    -0.19900
C660        C  0.99175853  0.91977581  0.32825542    -0.19900
C661        C  0.98390279  0.55651680  0.17506332    -0.19900
C662        C  0.98356312  0.58366954  0.19801487    -0.19900
C663        C  0.00919844  0.88921225  0.19492354    -0.20900
C664        C  0.00849780  0.91613971  0.17238457    -0.20900
C665        C  0.01752838  0.55881041  0.32755317    -0.20900
C666        C  0.01587112  0.58570808  0.30490665    -0.20900
C667        C  0.00040419  0.89018989  0.25045428    -0.16300
C668        C  0.00526455  0.98890970  0.33066608    -0.16300
C669        C  0.99987975  0.58530776  0.25145914    -0.16300
C670        C  0.99927782  0.98689516  0.17019190    -0.16300
H671        H  0.98348200  0.86281385  0.30901978     0.16600
H672        H  0.98682075  0.91520607  0.35185696     0.16600
H673        H  0.97586677  0.56089421  0.15251959     0.16600
H674        H  0.97567928  0.61309000  0.19618163     0.16600
H675        H  0.01346253  0.85869473  0.19159375     0.14900
H676        H  0.01193491  0.91011994  0.14867153     0.14900
H677        H  0.02554742  0.56392378  0.34998004     0.14900
H678        H  0.02182153  0.61569755  0.30691046     0.14900
H679        H  0.01365647  0.96580209  0.26899554     0.28200
H680        H  0.01400684  0.51101072  0.23043627     0.28200
N681        N  0.24460140  0.96420193  0.46613249    -0.34600
N682        N  0.24949236  0.95852332  0.03557843    -0.55200
N683        N  0.24737562  0.54116474  0.03362596    -0.34600
N684        N  0.24669346  0.54675971  0.46645008    -0.55200
C685        C  0.25102812  0.92692243  0.47252984     0.29000
C686        C  0.24895353  0.96951200  0.43586505     0.29000
C687        C  0.24982170  0.53623306  0.06406696     0.29000
C688        C  0.25375774  0.57832784  0.02735991     0.29000
C689        C  0.24538208  0.92053233  0.03017837     0.37600
C690        C  0.24396373  0.96471544  0.06548398     0.37600
C691        C  0.24217862  0.54168904  0.43633333     0.37600
C692        C  0.24390776  0.58506811  0.47231964     0.37600
C693        C  0.25970737  0.90834652  0.44600091    -0.19900
C694        C  0.25780224  0.93474494  0.42299417    -0.19900
C695        C  0.25758255  0.57081945  0.07720404    -0.19900
C696        C  0.26023229  0.59718166  0.05421128    -0.19900
C697        C  0.23764722  0.90250125  0.05698296    -0.20900
C698        C  0.23679989  0.93039075  0.07921216    -0.20900
C699        C  0.23699012  0.57717481  0.42304186    -0.20900
C700        C  0.23811473  0.60445339  0.44564787    -0.20900
C701        C  0.24927035  0.90136746  0.00180592    -0.16300
C702        C  0.24373987  0.00454127  0.41974099    -0.16300
C703        C  0.25228072  0.59676592  0.99861172    -0.16300
C704        C  0.24518502  0.00106852  0.08044385    -0.16300
H705        H  0.26627005  0.87845618  0.44315917     0.16600
H706        H  0.26237003  0.92826643  0.39958418     0.16600
H707        H  0.26131492  0.57643376  0.10088122     0.16600
H708        H  0.26617053  0.62706394  0.05707704     0.16600
H709        H  0.23257341  0.87242460  0.06025990     0.14900
H710        H  0.23105584  0.92595520  0.10265723     0.14900
H711        H  0.23311023  0.58306541  0.39945785     0.14900
H712        H  0.23484126  0.63519181  0.44270266     0.14900
H713        H  0.23454495  0.98322629  0.48117195     0.28200
H714        H  0.23895858  0.52186027  0.01828104     0.28200
N715        N  0.25044956  0.95089992  0.28425160    -0.34600
N716        N  0.24843770  0.95056895  0.21572913    -0.55200
N717        N  0.25112153  0.53334943  0.21607477    -0.34600
N718        N  0.24816286  0.53415782  0.28516146    -0.55200
C719        C  0.24408511  0.91366468  0.27835506     0.29000
C720        C  0.24663633  0.95698451  0.31448306     0.29000
C721        C  0.24733308  0.52736689  0.18583434     0.29000
C722        C  0.24533853  0.57100165  0.22224358     0.29000
C723        C  0.25102843  0.91232784  0.22144739     0.37600
C724        C  0.25356761  0.95525348  0.18564663     0.37600
C725        C  0.25392640  0.52894300  0.31499943     0.37600
C726        C  0.25317085  0.57171741  0.27898726     0.37600
C727        C  0.23613893  0.89587182  0.30519201    -0.19900
C728        C  0.23792621  0.92307660  0.32790124    -0.19900
C729        C  0.23942911  0.56209991  0.17274519    -0.19900
C730        C  0.23765944  0.58921524  0.19557710    -0.19900
C731        C  0.25720353  0.89258525  0.19471493    -0.20900
C732        C  0.25878384  0.91959949  0.17219573    -0.20900
C733        C  0.26217461  0.56338719  0.32789217    -0.20900
C734        C  0.26185400  0.59032415  0.30522505    -0.20900
C735        C  0.24712386  0.89429512  0.25001936    -0.16300
C736        C  0.25174494  0.99193283  0.33042859    -0.16300
C737        C  0.24909040  0.59027053  0.25056764    -0.16300
C738        C  0.25217955  0.99099366  0.16987038    -0.16300
H739        H  0.22996899  0.86612451  0.30822235     0.16600
H740        H  0.23319045  0.91845441  0.35156945     0.16600
H741        H  0.23546997  0.56804946  0.14927911     0.16600
H742        H  0.23183230  0.61927173  0.19254221     0.16600
H743        H  0.26035096  0.86178820  0.19165294     0.14900
H744        H  0.26310424  0.91343742  0.14859674     0.14900
H745        H  0.26834760  0.56846191  0.35105098     0.14900
H746        H  0.26787716  0.62019634  0.30783871     0.14900
H747        H  0.26000175  0.96939652  0.26890886     0.28200
H748        H  0.26040863  0.51443909  0.23129282     0.28200
C749        C  0.25716826  0.99017267  0.36420056    -0.14400
C750        C  0.23873408  0.00434959  0.38568004    -0.29600
H751        H  0.27726522  0.47764186  0.37147192     0.14600
H752        H  0.21932807  0.01860343  0.37788330     0.15200
C753        C  0.23948272  0.00397620  0.11432158    -0.14400
C754        C  0.25749933  0.98996893  0.13573175    -0.29600
H755        H  0.21974842  0.01838210  0.12144968     0.14600
H756        H  0.27686940  0.47643056  0.12761093     0.15200
C757        C  0.49524990  0.01368975  0.38588590    -0.14400
C758        C  0.00856692  0.98702755  0.36503400    -0.29600
H759        H  0.48182375  0.53679460  0.37774799     0.14600
H760        H  0.02042727  0.96246874  0.37388794     0.15200
C761        C  0.51013883  0.00872742  0.11581962    -0.14400
C762        C  0.99534169  0.98437637  0.13596408    -0.29600
H763        H  0.01994752  0.53277388  0.12359648     0.14600
H764        H  0.48535035  0.96079338  0.12759483     0.15200
C765        C  0.26520562  0.75011779  0.38871078    -0.11300
C766        C  0.26448972  0.74737195  0.36201744    -0.12800
C767        C  0.23667344  0.74857451  0.11245051    -0.11300
C768        C  0.23637449  0.74663833  0.13917729    -0.12800
C769        C  0.36083710  0.74041777  0.23925493    -0.11300
C770        C  0.38680193  0.73958019  0.23994012    -0.12800
C771        C  0.13609388  0.73863841  0.26621786    -0.11300
C772        C  0.11020037  0.73722036  0.26611619    -0.12800
C773        C  0.36280393  0.75515970  0.01576205    -0.11300
C774        C  0.38752769  0.76125249  0.51372451    -0.12800
C775        C  0.13736316  0.75985510  0.48540551    -0.11300
C776        C  0.11263875  0.75065150  0.98704571    -0.12800
C777        C  0.48608541  0.75097720  0.38996667    -0.11300
C778        C  0.98253007  0.74873592  0.36276478    -0.12800
C779        C  0.01578623  0.74275398  0.11282737    -0.11300
C780        C  0.51421519  0.74982355  0.13980867    -0.12800
O781        O  0.47448055  0.73289144  0.93806561    -0.76500
C782        C  0.50224445  0.64931343  0.00245717     0.84600
O783        O  0.43264193  0.78590099  0.52682241    -0.77600
O784        O  0.02523213  0.73944494  0.56514263    -0.79100
O785        O  0.06667083  0.77390322  0.97455007    -0.78900
O786        O  0.00761434  0.77386346  0.93115789    -0.77500
Zn787      Zn  0.47288399  0.72378306  0.98206188     1.55700
O788        O  0.06967148  0.73772052  0.50720520    -0.78900
Cd789      Cd  0.02236409  0.78394211  0.97349162     1.59700
Cd790      Cd  0.47692906  0.79505749  0.52890753     1.59600
O791        O  0.01575556  0.84178260  0.98306038    -0.78900
O792        O  0.50028022  0.75781859  0.00081063    -1.89400
Cd793      Cd  0.02800535  0.72750491  0.52053911     1.59900
O794        O  0.48385509  0.85343259  0.52078954    -0.78800
O795        O  0.02106811  0.66922423  0.51500177    -0.77500
C796        C  0.41963884  0.75792826  0.01343526     0.85000
C797        C  0.48854185  0.75524298  0.92100022     0.84700
O798        O  0.48220265  0.66752196  0.98912072    -0.76500
C799        C  0.08064074  0.76046976  0.48802727     0.85500
O800        O  0.43193486  0.73377173  0.99568966    -0.76600
C801        C  0.99987082  0.87124861  0.50016724     0.85600
C802        C  0.00947732  0.76215248  0.58080554     0.86000
O803        O  0.49072698  0.78143708  0.57127599    -0.79000
O804        O  0.01433159  0.83903664  0.76910368    -0.76500
C805        C  0.98681609  0.75041377  0.83129679     0.84600
O806        O  0.06849263  0.72592281  0.74139716    -0.77600
O807        O  0.48151153  0.65032954  0.76812369    -0.79100
O808        O  0.43111234  0.76536743  0.72748260    -0.78900
O809        O  0.48023382  0.83411696  0.73290981    -0.77500
Zn810      Zn  0.01998447  0.78225564  0.77814145     1.55700
O811        O  0.42864907  0.71735586  0.76056984    -0.78900
Cd812      Cd  0.47471442  0.77603366  0.72509673     1.59700
Cd813      Cd  0.02672700  0.71663907  0.72822144     1.59600
O814        O  0.48878706  0.76682411  0.68246411    -0.78900
O815        O  0.99844127  0.74934058  0.75123631    -1.89400
Cd816      Cd  0.47116719  0.70854059  0.77308891     1.59900
O817        O  0.02440901  0.73191245  0.68418887    -0.78800
O818        O  0.47329046  0.72278131  0.81745912    -0.77500
C819        C  0.07890262  0.74877719  0.76084754     0.85000
C820        C  0.99728270  0.85823541  0.75246723     0.84700
O821        O  0.00509413  0.77283140  0.81950240    -0.76500
C822        C  0.41672454  0.74125695  0.74274642     0.85500
O823        O  0.06305879  0.77137953  0.77675566    -0.76600
C824        C  0.50831913  0.74595191  0.67036072     0.85600
C825        C  0.49987564  0.63234358  0.75159219     0.86000
O826        O  0.01913808  0.65796673  0.73194231    -0.79000
O827        O  0.26269150  0.84703109  0.51979024    -0.76500
C828        C  0.23947894  0.75678089  0.58074137     0.84600
O829        O  0.32237391  0.72743086  0.99391226    -0.77600
O830        O  0.22815970  0.66530685  0.51452726    -0.79100
O831        O  0.18427616  0.77369781  0.97564162    -0.78900
O832        O  0.23393295  0.84105172  0.98241945    -0.77500
Zn833      Zn  0.27111080  0.79035130  0.52742945     1.55700
O834        O  0.17866997  0.73555727  0.50831860    -0.78900
Cd835      Cd  0.22821513  0.78320582  0.97395502     1.59700
Cd836      Cd  0.28064694  0.71619089  0.98043481     1.59600
O837        O  0.24252862  0.77179381  0.93149134    -0.78900
O838        O  0.24974473  0.75654960  0.50093910    -1.89400
Cd839      Cd  0.22052313  0.72373374  0.52108542     1.59900
O840        O  0.27837057  0.72824323  0.93571170    -0.78800
O841        O  0.22334598  0.73469614  0.56581545    -0.77500
C842        C  0.33072086  0.75767277  0.51061562     0.85000
C843        C  0.24744987  0.86513619  0.50065207     0.84700
O844        O  0.25817660  0.77854125  0.56895603    -0.76500
C845        C  0.16936174  0.74987379  0.99062531     0.85500
O846        O  0.31461910  0.78206373  0.52453247    -0.76600
C847        C  0.26214987  0.75012503  0.92034121     0.85600
C848        C  0.25235287  0.63967887  0.99882232     0.86000
O849        O  0.27237493  0.65751256  0.98520189    -0.79000
O850        O  0.26788852  0.83973374  0.76558279    -0.76500
C851        C  0.25908636  0.74843087  0.83089627     0.84600
O852        O  0.31451432  0.72146415  0.72612243    -0.77600
O853        O  0.23180632  0.65765512  0.76920781    -0.79100
O854        O  0.17774836  0.77371268  0.74352753    -0.78900
O855        O  0.22784484  0.84189262  0.73879979    -0.77500
Zn856      Zn  0.27603481  0.78237040  0.77118858     1.55700
O857        O  0.18132164  0.72663558  0.77735087    -0.78900
Cd858      Cd  0.21993165  0.78413359  0.73149901     1.59700
Cd859      Cd  0.27037527  0.71475461  0.72330590     1.59600
O860        O  0.22386406  0.77474440  0.68653452    -0.78900
O861        O  0.24831915  0.74954606  0.75147371    -1.89400
Cd862      Cd  0.22540264  0.71578405  0.77858403     1.59900
O863        O  0.25782133  0.72857651  0.68095370    -0.78800
O864        O  0.24001992  0.72597729  0.82090217    -0.77500
C865        C  0.32908606  0.74527355  0.74139996     0.85000
C866        C  0.24810374  0.85871028  0.75238859     0.84700
O867        O  0.27362153  0.77102202  0.81453338    -0.76500
C868        C  0.16636846  0.75016806  0.76186495     0.85500
O869        O  0.31717125  0.77039966  0.75863559    -0.76600
C870        C  0.23957520  0.75239959  0.67048211     0.85600
C871        C  0.24692234  0.63936592  0.74957206     0.86000
O872        O  0.26233367  0.65681675  0.73022873    -0.79000
N873        N  0.50338192  0.96685261  0.96594186    -0.34600
N874        N  0.50043691  0.55027547  0.96751844    -0.55200
N875        N  0.50412896  0.55231507  0.53552479    -0.34600
N876        N  0.49769493  0.97074811  0.53538779    -0.55200
C877        C  0.49641951  0.97355826  0.93648051     0.29000
C878        C  0.49598286  0.93016430  0.97264458     0.29000
C879        C  0.49961954  0.59028110  0.52985803     0.29000
C880        C  0.50064131  0.54695998  0.56586830     0.29000
C881        C  0.50291128  0.54564403  0.93704782     0.37600
C882        C  0.50452803  0.58819122  0.97336094     0.37600
C883        C  0.50335574  0.93317608  0.52869388     0.37600
C884        C  0.50494517  0.97623252  0.56484623     0.37600
C885        C  0.48466042  0.94047988  0.92444592    -0.19900
C886        C  0.48446715  0.91321364  0.94704297    -0.19900
C887        C  0.49346094  0.60932100  0.55690885    -0.19900
C888        C  0.49413056  0.58217157  0.57945371    -0.17900
C889        C  0.50833685  0.58082129  0.92364738    -0.20900
C890        C  0.50951872  0.60758055  0.94648278    -0.20900
C891        C  0.51412212  0.91483459  0.55406820    -0.20900
C892        C  0.51524149  0.94201571  0.57674052    -0.20900
C893        C  0.49987784  0.00905573  0.92054488    -0.16300
C894        C  0.50082486  0.91059520  0.00052514    -0.16300
C895        C  0.50281973  0.01203699  0.58080781    -0.16300
C896        C  0.50234104  0.60656072  0.00212051    -0.16300
H897        H  0.47628856  0.93657925  0.90200948     0.16600
H898        H  0.47635578  0.88421935  0.94488555     0.16600
H899        H  0.48893037  0.63979709  0.56018800     0.16600
H900        H  0.49017143  0.58791149  0.60316507     0.16600
H901        H  0.51119446  0.58683214  0.89992157     0.14900
H902        H  0.51347811  0.63803835  0.94347991     0.14900
H903        H  0.52115293  0.88505646  0.55596019     0.14900
H904        H  0.52374525  0.93730822  0.59902008     0.14900
H905        H  0.51488494  0.98471996  0.98018983     0.28200
H906        H  0.51183799  0.53239706  0.51973537     0.28200
N907        N  0.00452785  0.95845230  0.78540783    -0.34600
N908        N  0.99892954  0.95699463  0.71697152    -0.55200
N909        N  0.00667063  0.53872768  0.71550228    -0.34600
N910        N  0.00555053  0.54176764  0.78444096    -0.55200
C911        C  0.99821217  0.92094727  0.78044848     0.29000
C912        C  0.00264239  0.96539113  0.81580164     0.29000
C913        C  0.99935010  0.53090914  0.68636705     0.29000
C914        C  0.99911710  0.57591025  0.72150323     0.29000
C915        C  0.00183403  0.91883099  0.72308715     0.37600
C916        C  0.00211909  0.96081745  0.68648540     0.37600
C917        C  0.01211246  0.53782495  0.81416597     0.37600
C918        C  0.01041475  0.57897433  0.77708495     0.37600
C919        C  0.99255255  0.90366183  0.80809871    -0.19900
C920        C  0.99577611  0.93137074  0.83021562    -0.19900
C921        C  0.98715359  0.56367115  0.67383159    -0.19900
C922        C  0.98713079  0.59202530  0.69583226    -0.19900
C923        C  0.00690678  0.89860912  0.69628910    -0.20900
C924        C  0.00693681  0.92498278  0.67333490    -0.20900
C925        C  0.02110096  0.57285945  0.82563371    -0.20900
C926        C  0.02000241  0.59880730  0.80228765    -0.20900
C927        C  0.99899030  0.90111400  0.75203911    -0.16300
C928        C  0.00825057  0.00118343  0.83075567    -0.16300
C929        C  0.00398568  0.59640872  0.74890979    -0.16300
C930        C  0.99931754  0.99591136  0.67010810    -0.16300
H931        H  0.98695251  0.87392449  0.81217401     0.16600
H932        H  0.99348621  0.92661196  0.85415373     0.16600
H933        H  0.97833773  0.56661045  0.65149316     0.16600
H934        H  0.97884104  0.62115097  0.69329510     0.16600
H935        H  0.01047264  0.86788084  0.69336325     0.14900
H936        H  0.01025513  0.91831566  0.64967893     0.14900
H937        H  0.02762113  0.57932673  0.84842944     0.14900
H938        H  0.02543558  0.62903148  0.80380758     0.14900
H939        H  0.01239596  0.97671655  0.76890435     0.28200
H940        H  0.01841962  0.52103775  0.72985826     0.28200
N941        N  0.24582415  0.95719334  0.96697281    -0.34600
N942        N  0.24695057  0.96483171  0.53507210    -0.55200
N943        N  0.24326654  0.54701402  0.53508207    -0.34600
N944        N  0.25188970  0.53903220  0.96521444    -0.55200
C945        C  0.25270546  0.92005077  0.97335893     0.29000
C946        C  0.24993506  0.96219191  0.93671408     0.29000
C947        C  0.24550237  0.54143314  0.56543088     0.29000
C948        C  0.24843063  0.58466587  0.52951640     0.29000
C949        C  0.24187686  0.92720228  0.52910025     0.37600
C950        C  0.24066987  0.97081074  0.56486121     0.37600
C951        C  0.24747843  0.53297262  0.93520311     0.37600
C952        C  0.24969183  0.57759629  0.97014604     0.37600
C953        C  0.26145045  0.90146005  0.94679958    -0.19900
C954        C  0.25937659  0.92783854  0.92378974    -0.19900
C955        C  0.25171812  0.57617945  0.57928909    -0.19900
C956        C  0.25378003  0.60328330  0.55676992    -0.19900
C957        C  0.23248732  0.90925958  0.55535449    -0.20900
C958        C  0.23179855  0.93679389  0.57790451    -0.20900
C959        C  0.24307249  0.56791893  0.92092292    -0.20900
C960        C  0.24457279  0.59609761  0.94290389    -0.20900
C961        C  0.24686626  0.90809089  0.50086437    -0.16300
C962        C  0.24503514  0.99672011  0.92027597    -0.16300
C963        C  0.24703517  0.60352869  0.50098260    -0.16300
C964        C  0.24311834  0.00666171  0.58031959    -0.16300
H965        H  0.26854733  0.87175614  0.94409881     0.16600
H966        H  0.26481226  0.92250689  0.90031615     0.16600
H967        H  0.25489044  0.58141725  0.60311425     0.16600
H968        H  0.25854768  0.63346462  0.56022992     0.16600
H969        H  0.22646519  0.87940959  0.55803022     0.14900
H970        H  0.22524248  0.93233935  0.60112734     0.14900
H971        H  0.23899248  0.57266081  0.89721484     0.14900
H972        H  0.24170477  0.62676242  0.93922651     0.14900
H973        H  0.23576355  0.97637191  0.98189652     0.28200
H974        H  0.23586807  0.52748746  0.51919173     0.28200
N975        N  0.25140884  0.95925100  0.78538171    -0.34600
N976        N  0.24920828  0.95716814  0.71657558    -0.55200
N977        N  0.24886111  0.53911723  0.71613814    -0.34600
N978        N  0.24932533  0.54090684  0.78490174    -0.55200
C979        C  0.24646807  0.92140116  0.78019183     0.29000
C980        C  0.24810054  0.96613638  0.81564185     0.29000
C981        C  0.24357021  0.53242352  0.68629824     0.29000
C982        C  0.24235189  0.57656230  0.72224725     0.29000
C983        C  0.25204523  0.91907786  0.72290534     0.37600
C984        C  0.25334254  0.96110136  0.68621242     0.37600
C985        C  0.25672435  0.53633926  0.81435616     0.37600
C986        C  0.25346695  0.57847833  0.77810184     0.37600
C987        C  0.24011234  0.90384157  0.80754863    -0.19900
C988        C  0.24140845  0.93179984  0.82977571    -0.19900
C989        C  0.23378723  0.56641660  0.67339448    -0.19900
C990        C  0.23263380  0.59392856  0.69601053    -0.19900
C991        C  0.25747300  0.89872356  0.69625979    -0.20900
C992        C  0.25820726  0.92510254  0.67323394    -0.20900
C993        C  0.26512057  0.57133580  0.82633939    -0.20900
C994        C  0.26324461  0.59781612  0.80349975    -0.20900
C995        C  0.24900469  0.90154256  0.75190196    -0.16300
C996        C  0.25263208  0.00213724  0.83070753    -0.16300
C997        C  0.24733626  0.59646133  0.74997114    -0.16300
C998        C  0.25154946  0.99642065  0.66974791    -0.16300
H999        H  0.23536761  0.87373985  0.81129263     0.16600
H1000       H  0.23787458  0.92691932  0.85356395     0.16600
H1001       H  0.22809881  0.57151120  0.65020915     0.16600
H1002       H  0.22592880  0.62370621  0.69316484     0.16600
H1003       H  0.26067126  0.86788770  0.69354217     0.14900
H1004       H  0.26173005  0.91827773  0.64960128     0.14900
H1005       H  0.27192672  0.57738054  0.84913714     0.14900
H1006       H  0.26866035  0.62798777  0.80549893     0.14900
H1007       H  0.25964353  0.97785082  0.76935267     0.28200
H1008       H  0.25972172  0.52095842  0.73081668     0.28200
C1009       C  0.25809304  0.00387999  0.86462511    -0.14400
C1010       C  0.23923708  0.99350590  0.88661203    -0.29600
H1011       H  0.28066679  0.51564651  0.87170322     0.14600
H1012       H  0.21892093  0.98129751  0.88006107     0.15200
C1013       C  0.23795895  0.00924078  0.61431263    -0.14400
C1014       C  0.25599066  0.99441168  0.63542942    -0.29600
H1015       H  0.21867244  0.02443669  0.62180911     0.14600
H1016       H  0.27439531  0.48311055  0.62854303     0.15200
C1017       C  0.49529497  0.01191542  0.88635798    -0.14400
C1018       C  0.01270342  0.00294025  0.86491349    -0.29600
H1019       H  0.48151019  0.53649444  0.87865680     0.14600
H1020       H  0.03316066  0.01351588  0.87267828     0.15200
C1021       C  0.50643843  0.01422872  0.61511360    -0.14400
C1022       C  0.99540332  0.99299983  0.63585025    -0.29600
H1023       H  0.02396830  0.53838463  0.62418930     0.14600
H1024       H  0.48198909  0.96601299  0.62676812     0.15200
C1025       C  0.26522356  0.74945324  0.88882134    -0.11300
C1026       C  0.26399079  0.74880118  0.86208096    -0.12800
C1027       C  0.23704065  0.75632824  0.61230276    -0.11300
C1028       C  0.23705748  0.75468244  0.63904295    -0.12800
C1029       C  0.35997862  0.74320767  0.73986184    -0.11300
C1030       C  0.38590253  0.74174929  0.74037664    -0.12800
C1031       C  0.13553301  0.74975021  0.76447300    -0.11300
C1032       C  0.10960544  0.74949207  0.76421570    -0.12800
C1033       C  0.36155273  0.76004627  0.51335604    -0.11300
C1034       C  0.38872637  0.75714800  0.01618857    -0.12800
C1035       C  0.13857597  0.75055888  0.98766632    -0.11300
C1036       C  0.11143768  0.76069161  0.48497166    -0.12800
C1037       C  0.48437540  0.75279595  0.88968574    -0.11300
C1038       C  0.98302471  0.75187365  0.86287376    -0.12800
C1039       C  0.01267621  0.76154033  0.61221776    -0.11300
C1040       C  0.51244818  0.74983696  0.63911395    -0.12800
O1041       O  0.97719681  0.23728830  0.43708535    -0.76500
C1042       C  0.00183948  0.15189722  0.50023878     0.84600
O1043       O  0.93299524  0.27799841  0.02463649    -0.77600
O1044       O  0.52430117  0.23672716  0.06614890    -0.79100
O1045       O  0.56669503  0.28738337  0.47685386    -0.78900
O1046       O  0.51026172  0.28147507  0.43056716    -0.77500
Zn1047     Zn  0.97344090  0.22708135  0.48034751     1.55700
O1048       O  0.57101971  0.23572765  0.00981538    -0.78900
Cd1049     Cd  0.52236308  0.29515850  0.47326661     1.59700
Cd1050     Cd  0.97701986  0.28550891  0.02868564     1.59600
O1051       O  0.51388709  0.35316390  0.48104673    -0.78900
O1052       O  0.99970273  0.26096721  0.50081348    -1.89400
Cd1053     Cd  0.52905904  0.22482587  0.02183849     1.59900
O1054       O  0.98508483  0.34382489  0.02265936    -0.78800
O1055       O  0.52251472  0.16615278  0.01649924    -0.77500
C1056       C  0.91918656  0.26170020  0.50885722     0.85000
C1057       C  0.99219705  0.25929650  0.42074525     0.84700
O1058       O  0.98250011  0.17030291  0.48598648    -0.76500
C1059       C  0.58221284  0.25860148  0.99085735     0.85500
O1060       O  0.93206151  0.23720355  0.49185693    -0.76600
C1061       C  0.50125711  0.36873402  0.00021299     0.85600
C1062       C  0.50751671  0.25862761  0.08131500     0.86000
O1063       O  0.98902668  0.27134099  0.07103997    -0.79000
O1064       O  0.51864524  0.33009777  0.26737037    -0.76500
C1065       C  0.49289964  0.24409929  0.33138564     0.84600
O1066       O  0.56977180  0.21457174  0.23753076    -0.77600
O1067       O  0.98350177  0.14678413  0.26843286    -0.79100
O1068       O  0.93341393  0.26399002  0.23043098    -0.78900
O1069       O  0.98347576  0.33161799  0.23437026    -0.77500
Zn1070     Zn  0.52409604  0.27301518  0.27623444     1.55700
O1071       O  0.93145462  0.21501198  0.26272750    -0.78900
Cd1072     Cd  0.97690453  0.27374008  0.22659033     1.59700
Cd1073     Cd  0.52704511  0.20607006  0.22695729     1.59600
O1074       O  0.98899850  0.26356343  0.18349382    -0.78900
O1075       O  0.50072498  0.23981918  0.25151528    -1.89400
Cd1076     Cd  0.97403926  0.20540297  0.27435322     1.59900
O1077       O  0.52213421  0.22212725  0.18318144    -0.78800
O1078       O  0.97738690  0.22047124  0.31862805    -0.77500
C1079       C  0.58139306  0.23751171  0.25616194     0.85000
C1080       C  0.50055124  0.34921384  0.25190884     0.84700
O1081       O  0.51105019  0.26522962  0.31808675    -0.76500
C1082       C  0.91930288  0.23948426  0.24555956     0.85500
O1083       O  0.56663420  0.26066113  0.27268318    -0.76600
C1084       C  0.00763131  0.24166218  0.17093961     0.85600
C1085       C  0.00089577  0.12868120  0.25078401     0.86000
O1086       O  0.51860180  0.14746429  0.23180838    -0.79000
O1087       O  0.76511137  0.34368335  0.01636786    -0.76500
C1088       C  0.74456924  0.25306320  0.07869606     0.84600
O1089       O  0.82115096  0.23279491  0.49045723    -0.77600
O1090       O  0.72868826  0.16203175  0.01335120    -0.79100
O1091       O  0.68431058  0.28425034  0.47710479    -0.78900
O1092       O  0.73571372  0.34886009  0.47970298    -0.77500
Zn1093     Zn  0.77325540  0.28706320  0.02396593     1.55700
O1094       O  0.68050035  0.23409026  0.00956628    -0.78900
Cd1095     Cd  0.72829032  0.29093416  0.47279434     1.59700
Cd1096     Cd  0.77895042  0.22188720  0.47992515     1.59600
O1097       O  0.74024334  0.27553036  0.43014975    -0.78900
O1098       O  0.75100270  0.25304477  0.99872799    -1.89400
Cd1099     Cd  0.72248066  0.22073643  0.02015552     1.59900
O1100       O  0.77442763  0.22973888  0.43511047    -0.78800
O1101       O  0.72778607  0.23110321  0.06452095    -0.77500
C1102       C  0.83163906  0.25264896  0.00624804     0.85000
C1103       C  0.74946784  0.36197452  0.99772034     0.84700
O1104       O  0.76242976  0.27534474  0.06610740    -0.76500
C1105       C  0.66917474  0.26255241  0.49374440     0.85500
O1106       O  0.81619272  0.27833259  0.01942503    -0.76600
C1107       C  0.75831856  0.25123552  0.41935724     0.85600
C1108       C  0.74992472  0.14718575  0.50014365     0.86000
O1109       O  0.77084864  0.16414425  0.48750865    -0.79000
O1110       O  0.76951251  0.33262909  0.26435092    -0.76500
C1111       C  0.75703286  0.24236457  0.32983014     0.84600
O1112       O  0.81833930  0.21746626  0.22668326    -0.77600
O1113       O  0.73560100  0.15064217  0.26725280    -0.79100
O1114       O  0.68050884  0.26598224  0.23942077    -0.78900
O1115       O  0.73120135  0.33498116  0.23494178    -0.77500
Zn1116     Zn  0.77727503  0.27570149  0.27103534     1.55700
O1117       O  0.68369424  0.21710230  0.27171671    -0.78900
Cd1118     Cd  0.72305238  0.27695009  0.22858036     1.59700
Cd1119     Cd  0.77465018  0.20867244  0.22238046     1.59600
O1120       O  0.72840410  0.26704615  0.18391268    -0.78900
O1121       O  0.75102769  0.24273422  0.24962867    -1.89400
Cd1122     Cd  0.72761042  0.20830776  0.27563188     1.59900
O1123       O  0.76352974  0.22230007  0.17945262    -0.78800
O1124       O  0.73903738  0.21917612  0.31880597    -0.77500
C1125       C  0.83183829  0.24104953  0.24321869     0.85000
C1126       C  0.75086606  0.35168775  0.24957698     0.84700
O1127       O  0.77234234  0.26488522  0.31422107    -0.76500
C1128       C  0.66892471  0.24100337  0.25643731     0.85500
O1129       O  0.81888721  0.26481938  0.26076105    -0.76600
C1130       C  0.74522619  0.24559428  0.16838900     0.85600
C1131       C  0.75176007  0.13263720  0.24846177     0.86000
O1132       O  0.76764717  0.15035623  0.22965176    -0.79000
N1133       N  0.00442178  0.46948569  0.46659481    -0.34600
N1134       N  0.00097529  0.05209330  0.46571549    -0.55200
N1135       N  0.00316237  0.04253577  0.03362070    -0.34600
N1136       N  0.99958586  0.46191878  0.03677241    -0.55200
C1137       C  0.99790284  0.47545351  0.43694413     0.29000
C1138       C  0.99661214  0.43311119  0.47368278     0.29000
C1139       C  0.99783505  0.08016057  0.02730053     0.29000
C1140       C  0.00043796  0.03810808  0.06415663     0.29000
C1141       C  0.00441865  0.04667570  0.43538982     0.37600
C1142       C  0.00497843  0.09014446  0.47124855     0.37600
C1143       C  0.00565941  0.42428058  0.03088937     0.37600
C1144       C  0.00681933  0.46870360  0.06602912     0.37600
C1145       C  0.98605682  0.44227807  0.42519457    -0.19900
C1146       C  0.98528683  0.41568115  0.44817717    -0.19900
C1147       C  0.99179800  0.09979583  0.05415750    -0.19900
C1148       C  0.99353695  0.07348505  0.07719145    -0.17900
C1149       C  0.01053828  0.08151763  0.42175585    -0.20900
C1150       C  0.01094351  0.10887469  0.44431279    -0.20900
C1151       C  0.01666785  0.40704296  0.05659338    -0.20900
C1152       C  0.01758688  0.43516191  0.07864835    -0.20900
C1153       C  0.00153705  0.51047979  0.42058340    -0.16300
C1154       C  0.00101605  0.41401037  0.50176796    -0.16300
C1155       C  0.00392433  0.50502143  0.08114487    -0.16300
C1156       C  0.00203635  0.10905454  0.49979480    -0.16300
H1157       H  0.97789670  0.43792845  0.40270858     0.16600
H1158       H  0.97694087  0.38677648  0.44632739     0.16600
H1159       H  0.98662140  0.13015927  0.05702076     0.16600
H1160       H  0.98999828  0.07988562  0.10086029     0.16600
H1161       H  0.01425555  0.08691366  0.39804350     0.14900
H1162       H  0.01509717  0.13924960  0.44112138     0.14900
H1163       H  0.02379207  0.37737849  0.05909774     0.14900
H1164       H  0.02613483  0.43153117  0.10101465     0.14900
H1165       H  0.01590713  0.48756316  0.48070392     0.28200
H1166       H  0.01094445  0.02236839  0.01810072     0.28200
N1167       N  0.50447442  0.44898476  0.28574498    -0.34600
N1168       N  0.50096491  0.44837575  0.21730673    -0.55200
N1169       N  0.50518901  0.02933422  0.21592538    -0.34600
N1170       N  0.50238628  0.03086831  0.28522566    -0.55200
C1171       C  0.49857913  0.41152119  0.27993954     0.29000
C1172       C  0.49999556  0.45526307  0.31589598     0.29000
C1173       C  0.49832748  0.02260050  0.18646026     0.29000
C1174       C  0.49846126  0.06668687  0.22233668     0.29000
C1175       C  0.50474632  0.41025815  0.22301351     0.37600
C1176       C  0.50405813  0.45289706  0.18689536     0.37600
C1177       C  0.50814215  0.02607642  0.31512068     0.37600
C1178       C  0.50783419  0.06818648  0.27855556     0.37600
C1179       C  0.49038170  0.39379192  0.30668097    -0.19900
C1180       C  0.49138795  0.42120635  0.32922593    -0.19900
C1181       C  0.48718950  0.05619038  0.17421315    -0.19900
C1182       C  0.48746076  0.08394232  0.19661480    -0.19900
C1183       C  0.51023187  0.39062806  0.19607289    -0.20900
C1184       C  0.50966340  0.41743677  0.17337132    -0.20900
C1185       C  0.51732317  0.06051524  0.32732182    -0.20900
C1186       C  0.51693009  0.08713359  0.30439818    -0.20900
C1187       C  0.50165514  0.39204625  0.25165200    -0.16300
C1188       C  0.50429852  0.49049401  0.33192532    -0.16300
C1189       C  0.50312313  0.08640562  0.25018831    -0.16300
C1190       C  0.50053509  0.48828237  0.17099330    -0.16300
H1191       H  0.48430510  0.36402018  0.30976421     0.16600
H1192       H  0.48618639  0.41647615  0.35274148     0.16600
H1193       H  0.47885215  0.06014960  0.15177430     0.16600
H1194       H  0.47989619  0.11344135  0.19429468     0.16600
H1195       H  0.51411964  0.35998598  0.19293330     0.14900
H1196       H  0.51302334  0.41130295  0.14963427     0.14900
H1197       H  0.52432832  0.06582682  0.35009467     0.14900
H1198       H  0.52306829  0.11703673  0.30650175     0.14900
H1199       H  0.51379219  0.46765023  0.27037051     0.28200
H1200       H  0.51618181  0.01085769  0.23032735     0.28200
N1201       N  0.74919320  0.46552487  0.46475457    -0.34600
N1202       N  0.74871070  0.46108957  0.03327695    -0.55200
N1203       N  0.74186932  0.04327059  0.03317356    -0.34600
N1204       N  0.74992632  0.04757317  0.46527476    -0.55200
C1205       C  0.75480939  0.42800406  0.47109894     0.29000
C1206       C  0.75353159  0.47074367  0.43446608     0.29000
C1207       C  0.74513621  0.03743721  0.06337987     0.29000
C1208       C  0.74808949  0.08061916  0.02743632     0.29000
C1209       C  0.74445954  0.42332334  0.02703618     0.37600
C1210       C  0.74321565  0.46625447  0.06332835     0.37600
C1211       C  0.74629572  0.04243748  0.43501318     0.37600
C1212       C  0.74695928  0.08589483  0.47100287     0.37600
C1213       C  0.76286171  0.40914571  0.44447001    -0.19900
C1214       C  0.76149447  0.43567813  0.42151461    -0.19900
C1215       C  0.75317050  0.07164493  0.07694243    -0.19900
C1216       C  0.75521172  0.09872027  0.05438691    -0.19900
C1217       C  0.73649936  0.40447111  0.05343319    -0.20900
C1218       C  0.73581160  0.43154890  0.07628479    -0.20900
C1219       C  0.74165923  0.07790215  0.42148631    -0.20900
C1220       C  0.74211632  0.10524033  0.44409589    -0.20900
C1221       C  0.74877509  0.40492039  0.99837048    -0.16300
C1222       C  0.74917782  0.50597907  0.41832024    -0.16300
C1223       C  0.74607227  0.09970145  0.99905656    -0.16300
C1224       C  0.74496652  0.50196748  0.07915593    -0.16300
H1225       H  0.76879901  0.37904667  0.44154134     0.16600
H1226       H  0.76592945  0.42918689  0.39808132     0.16600
H1227       H  0.75757610  0.07651495  0.10057018     0.16600
H1228       H  0.76117691  0.12853370  0.05760206     0.16600
H1229       H  0.73134000  0.37431289  0.05605825     0.14900
H1230       H  0.73018594  0.42631816  0.09966455     0.14900
H1231       H  0.73863670  0.08372301  0.39774550     0.14900
H1232       H  0.73911979  0.13599496  0.44097044     0.14900
H1233       H  0.73967779  0.48490426  0.47990767     0.28200
H1234       H  0.73310820  0.02426900  0.01773900     0.28200
N1235       N  0.75659771  0.45134364  0.28311086    -0.34600
N1236       N  0.75258927  0.45058535  0.21462139    -0.55200
N1237       N  0.75130416  0.03263381  0.21431153    -0.34600
N1238       N  0.75131870  0.03388151  0.28351195    -0.55200
C1239       C  0.74997743  0.41408062  0.27751033     0.29000
C1240       C  0.75305085  0.45775886  0.31335007     0.29000
C1241       C  0.74595126  0.02676690  0.18434350     0.29000
C1242       C  0.74695015  0.07058091  0.22053380     0.29000
C1243       C  0.75598213  0.41246838  0.22051048     0.37600
C1244       C  0.75714785  0.45523161  0.18441286     0.37600
C1245       C  0.75711298  0.02887140  0.31336274     0.37600
C1246       C  0.75621245  0.07139491  0.27711080     0.37600
C1247       C  0.74226693  0.39662729  0.30456030    -0.19900
C1248       C  0.74440747  0.42402549  0.32706862    -0.19900
C1249       C  0.73856265  0.06181597  0.17147703    -0.19900
C1250       C  0.73874356  0.08910161  0.19417877    -0.19900
C1251       C  0.76230317  0.39277022  0.19378902    -0.20900
C1252       C  0.76302094  0.41967522  0.17108898    -0.20900
C1253       C  0.76529337  0.06348923  0.32605446    -0.20900
C1254       C  0.76483229  0.09027352  0.30324949    -0.20900
C1255       C  0.75227315  0.39447087  0.24917289    -0.16300
C1256       C  0.75794730  0.49299819  0.32900208    -0.16300
C1257       C  0.75189738  0.08974862  0.24863990    -0.16300
C1258       C  0.75429115  0.49073668  0.16843361    -0.16300
H1259       H  0.73583348  0.36703750  0.30786114     0.16600
H1260       H  0.73967918  0.41971541  0.35076609     0.16600
H1261       H  0.73347325  0.06780187  0.14828332     0.16600
H1262       H  0.73366680  0.11942007  0.19129494     0.16600
H1263       H  0.76601459  0.36205932  0.19084095     0.14900
H1264       H  0.76702529  0.41349204  0.14742873     0.14900
H1265       H  0.77138881  0.06882886  0.34919943     0.14900
H1266       H  0.77055648  0.12028305  0.30571436     0.14900
H1267       H  0.76585085  0.46978862  0.26751634     0.28200
H1268       H  0.76059017  0.01325069  0.22916500     0.28200
C1269       C  0.76322425  0.49170656  0.36286131    -0.14400
C1270       C  0.74460774  0.50597613  0.38415551    -0.29600
H1271       H  0.78145135  0.97849072  0.36961284     0.14600
H1272       H  0.72533609  0.52036291  0.37614486     0.15200
C1273       C  0.73989317  0.50361061  0.11320994    -0.14400
C1274       C  0.75863457  0.48984687  0.13408584    -0.29600
H1275       H  0.71993095  0.51687735  0.12092758     0.14600
H1276       H  0.77227049  0.97435195  0.12567735     0.15200
C1277       C  0.99759575  0.51204702  0.38631317    -0.14400
C1278       C  0.50733416  0.48843657  0.36626716    -0.29600
H1279       H  0.98473449  0.03694381  0.37652201     0.14600
H1280       H  0.51986809  0.46446362  0.37508707     0.15200
C1281       C  0.00753482  0.50867210  0.11538770    -0.14400
C1282       C  0.49677143  0.48615442  0.13667851    -0.29600
H1283       H  0.52261091  0.03243861  0.12459625     0.14600
H1284       H  0.98286400  0.46113063  0.12799072     0.15200
C1285       C  0.76009265  0.24720946  0.38792209    -0.11300
C1286       C  0.75963243  0.24404909  0.36127158    -0.12800
C1287       C  0.74379606  0.25166172  0.11027453    -0.11300
C1288       C  0.74393954  0.24863170  0.13691814    -0.12800
C1289       C  0.86267949  0.24039640  0.24261716    -0.11300
C1290       C  0.88854934  0.23978280  0.24346197    -0.12800
C1291       C  0.63809828  0.23932958  0.25799336    -0.11300
C1292       C  0.61221051  0.23803445  0.25795234    -0.12800
C1293       C  0.86236659  0.25432575  0.00867456    -0.11300
C1294       C  0.88836544  0.26150614  0.51018341    -0.12800
C1295       C  0.63841637  0.26522463  0.49197378    -0.11300
C1296       C  0.61291724  0.25899068  0.98806668    -0.12800
C1297       C  0.98942218  0.25592612  0.38937809    -0.11300
C1298       C  0.48974792  0.24867054  0.36272638    -0.12800
C1299       C  0.50905917  0.25648937  0.11278455    -0.11300
C1300       C  0.01007667  0.24334577  0.13955672    -0.12800
O1301       O  0.97733339  0.22918799  0.93738010    -0.76500
C1302       C  0.00007225  0.14117475  0.99861962     0.84600
O1303       O  0.93270927  0.28657001  0.52421437    -0.77600
O1304       O  0.52416103  0.23601625  0.56533518    -0.79100
O1305       O  0.56719859  0.28127715  0.97472812    -0.78900
O1306       O  0.50976959  0.27900735  0.93078682    -0.77500
Zn1307     Zn  0.97299385  0.21797550  0.98033177     1.55700
O1308       O  0.57045042  0.23973308  0.51013873    -0.78900
Cd1309     Cd  0.52323783  0.29162243  0.97294855     1.59700
Cd1310     Cd  0.97646798  0.29584532  0.52774539     1.59600
O1311       O  0.51654441  0.35023719  0.98083663    -0.78900
O1312       O  0.99985433  0.25089831  0.00109667    -1.89400
Cd1313     Cd  0.52851976  0.22736663  0.52070135     1.59900
O1314       O  0.98404550  0.35387888  0.52026893    -0.78800
O1315       O  0.52211930  0.16931422  0.51353004    -0.77500
C1316       C  0.91912369  0.25420945  0.00858064     0.85000
C1317       C  0.99276717  0.25145355  0.92171404     0.84700
O1318       O  0.98041450  0.16045366  0.98554883    -0.76500
C1319       C  0.58173242  0.26435006  0.49270482     0.85500
O1320       O  0.93172105  0.22976523  0.99132343    -0.76600
C1321       C  0.49913748  0.37121004  0.50111941     0.85600
C1322       C  0.50843106  0.25790656  0.58163204     0.86000
O1323       O  0.98847878  0.28429083  0.57065803    -0.79000
O1324       O  0.51766472  0.33258863  0.76819971    -0.76500
C1325       C  0.49174870  0.24547828  0.83171400     0.84600
O1326       O  0.57025729  0.21626720  0.74089990    -0.77600
O1327       O  0.98360051  0.15576539  0.76648925    -0.79100
O1328       O  0.93233181  0.27404396  0.73204698    -0.78900
O1329       O  0.98248270  0.34249704  0.73812802    -0.77500
Zn1330     Zn  0.52335975  0.27561492  0.77721693     1.55700
O1331       O  0.93098832  0.22206506  0.76138340    -0.78900
Cd1332     Cd  0.97578644  0.28494903  0.72863878     1.59700
Cd1333     Cd  0.52788074  0.20737050  0.72901967     1.59600
O1334       O  0.98788278  0.27722577  0.68507379    -0.78900
O1335       O  0.50076577  0.24201622  0.75194122    -1.89400
Cd1336     Cd  0.97335032  0.21352850  0.77326215     1.59900
O1337       O  0.52447151  0.22151102  0.68455592    -0.78800
O1338       O  0.97619543  0.22509627  0.81782987    -0.77500
C1339       C  0.58134745  0.24038193  0.75899197     0.85000
C1340       C  0.50090163  0.35148582  0.75103371     0.84700
O1341       O  0.50984600  0.26716708  0.81888828    -0.76500
C1342       C  0.91858307  0.24759914  0.74545257     0.85500
O1343       O  0.56610099  0.26417074  0.77443739    -0.76600
C1344       C  0.00616816  0.25553148  0.67170664     0.85600
C1345       C  0.00182347  0.13861092  0.74931692     0.86000
O1346       O  0.51878136  0.14906754  0.73448519    -0.79000
O1347       O  0.76522960  0.34790093  0.51873859    -0.76500
C1348       C  0.74532824  0.25485989  0.58004101     0.84600
O1349       O  0.82074820  0.22563178  0.99074193    -0.77600
O1350       O  0.72949421  0.16587136  0.51306551    -0.79100
O1351       O  0.68465714  0.27728112  0.97279147    -0.78900
O1352       O  0.73426154  0.34431357  0.97853812    -0.77500
Zn1353     Zn  0.77320517  0.29126693  0.52606054     1.55700
O1354       O  0.68034941  0.23841181  0.51185990    -0.78900
Cd1355     Cd  0.72852602  0.28618280  0.97081499     1.59700
Cd1356     Cd  0.77857069  0.21623298  0.97874420     1.59600
O1357       O  0.74323286  0.27363333  0.92880990    -0.78900
O1358       O  0.75105860  0.25773096  0.50034811    -1.89400
Cd1359     Cd  0.72271645  0.22435223  0.52111913     1.59900
O1360       O  0.77648504  0.22664297  0.93399473    -0.78800
O1361       O  0.72887179  0.23281710  0.56553254    -0.77500
C1362       C  0.83182445  0.25866580  0.50723211     0.85000
C1363       C  0.75052423  0.36635045  0.49936052     0.84700
O1364       O  0.76252377  0.27840754  0.56789071    -0.76500
C1365       C  0.66947219  0.25641426  0.99004937     0.85500
O1366       O  0.81618675  0.28291487  0.52174135    -0.76600
C1367       C  0.76182637  0.24995958  0.91824411     0.85600
C1368       C  0.74787883  0.14246680  0.99920796     0.86000
O1369       O  0.76845511  0.15853777  0.98517058    -0.79000
O1370       O  0.76803038  0.33700064  0.76271070    -0.76500
C1371       C  0.76042105  0.24718159  0.82920149     0.84600
O1372       O  0.81814643  0.21920557  0.72851129    -0.77600
O1373       O  0.73467764  0.15359567  0.76935553    -0.79100
O1374       O  0.68004593  0.26744468  0.73991312    -0.78900
O1375       O  0.72930179  0.33756200  0.73396583    -0.77500
Zn1376     Zn  0.77694992  0.28062455  0.76960805     1.55700
O1377       O  0.68393071  0.22237384  0.77539493    -0.78900
Cd1378     Cd  0.72237307  0.27895671  0.72863230     1.59700
Cd1379     Cd  0.77448019  0.21047602  0.72423262     1.59600
O1380       O  0.72852655  0.26777923  0.68437309    -0.78900
O1381       O  0.75065898  0.24584716  0.75017623    -1.89400
Cd1382     Cd  0.72791909  0.21208309  0.77731686     1.59900
O1383       O  0.76386062  0.22307862  0.68110569    -0.78800
O1384       O  0.74211187  0.22358487  0.81932186    -0.77500
C1385       C  0.83138327  0.24542564  0.74266034     0.85000
C1386       C  0.74878943  0.35518383  0.74817331     0.84700
O1387       O  0.77435306  0.27040309  0.81284806    -0.76500
C1388       C  0.66883029  0.24452401  0.75889741     0.85500
O1389       O  0.81823370  0.27111653  0.75820270    -0.76600
C1390       C  0.74568614  0.24607589  0.66948020     0.85600
C1391       C  0.75086205  0.13507584  0.75083907     0.86000
O1392       O  0.76716588  0.15245281  0.73224631    -0.79000
N1393       N  0.00012617  0.45961151  0.96766362    -0.34600
N1394       N  0.99846704  0.04019875  0.96525112    -0.55200
N1395       N  0.00456489  0.05267033  0.53410433    -0.34600
N1396       N  0.00217363  0.47042942  0.53634692    -0.55200
C1397       C  0.99245587  0.46463315  0.93824874     0.29000
C1398       C  0.99359129  0.42298194  0.97544041     0.29000
C1399       C  0.99918330  0.09037004  0.52821608     0.29000
C1400       C  0.00083668  0.04748703  0.56441603     0.29000
C1401       C  0.99988430  0.03393427  0.93483828     0.37600
C1402       C  0.00045698  0.07877166  0.96986263     0.37600
C1403       C  0.00659353  0.43255345  0.52990893     0.37600
C1404       C  0.00893900  0.47570263  0.56596117     0.37600
C1405       C  0.98109942  0.43059011  0.92738871    -0.19900
C1406       C  0.98173217  0.40450896  0.95070996    -0.19900
C1407       C  0.99207786  0.10932536  0.55507420    -0.19900
C1408       C  0.99328020  0.08247172  0.57775334    -0.17900
C1409       C  0.00210097  0.06886361  0.92011193    -0.20900
C1410       C  0.00276908  0.09707212  0.94211192    -0.20900
C1411       C  0.01600743  0.41368890  0.55566037    -0.20900
C1412       C  0.01768024  0.44094261  0.57826570    -0.20900
C1413       C  0.99625144  0.49867695  0.92071149    -0.16300
C1414       C  0.00002199  0.40456550  0.00331860    -0.16300
C1415       C  0.00732192  0.51171450  0.58170983    -0.16300
C1416       C  0.99939778  0.09823900  0.99841584    -0.16300
H1417       H  0.97292445  0.42495381  0.90508447     0.16600
H1418       H  0.97433474  0.37507093  0.94947689     0.16600
H1419       H  0.98669256  0.13959081  0.55818074     0.16600
H1420       H  0.98893052  0.08822602  0.60137863     0.16600
H1421       H  0.00268336  0.07374341  0.89605866     0.14900
H1422       H  0.00448597  0.12770528  0.93795642     0.14900
H1423       H  0.02164456  0.38343534  0.55788694     0.14900
H1424       H  0.02526193  0.43574142  0.60085215     0.14900
H1425       H  0.01205326  0.47822551  0.98088594     0.28200
H1426       H  0.01310150  0.03297941  0.51858502     0.28200
N1427       N  0.50426015  0.45122562  0.78523153    -0.34600
N1428       N  0.50023903  0.45109499  0.71699298    -0.55200
N1429       N  0.50219270  0.03259481  0.71583107    -0.34600
N1430       N  0.49964448  0.03242523  0.78547646    -0.55200
C1431       C  0.49855091  0.41372536  0.77929256     0.29000
C1432       C  0.49990662  0.45719629  0.81542416     0.29000
C1433       C  0.49518569  0.02682001  0.68627719     0.29000
C1434       C  0.49554032  0.06970687  0.72302730     0.29000
C1435       C  0.50479226  0.41304930  0.72246087     0.37600
C1436       C  0.50349749  0.45608091  0.68665312     0.37600
C1437       C  0.50601863  0.02667579  0.81513757     0.37600
C1438       C  0.50572774  0.06964398  0.77913232     0.37600
C1439       C  0.49052001  0.39574781  0.80598883    -0.19900
C1440       C  0.49155223  0.42296365  0.82863674    -0.19900
C1441       C  0.48403320  0.06082804  0.67472500    -0.19900
C1442       C  0.48440837  0.08783018  0.69771524    -0.19900
C1443       C  0.51100773  0.39395953  0.69546135    -0.20900
C1444       C  0.51002549  0.42100475  0.67294918    -0.20900
C1445       C  0.51616202  0.06046811  0.82755434    -0.20900
C1446       C  0.51574942  0.08765588  0.80498174    -0.20900
C1447       C  0.50174449  0.39442603  0.75093452    -0.16300
C1448       C  0.50414322  0.49225694  0.83164803    -0.16300
C1449       C  0.50085824  0.08858363  0.75107866    -0.16300
C1450       C  0.49932118  0.49149534  0.67096672    -0.16300
H1451       H  0.48452011  0.36594325  0.80901283     0.16600
H1452       H  0.48649883  0.41798589  0.85214394     0.16600
H1453       H  0.47582086  0.06562111  0.65231196     0.16600
H1454       H  0.47702809  0.11749183  0.69601343     0.16600
H1455       H  0.51570023  0.36353824  0.69215368     0.14900
H1456       H  0.51375459  0.41527995  0.64922261     0.14900
H1457       H  0.52378764  0.06495534  0.85020939     0.14900
H1458       H  0.52248596  0.11729239  0.80727398     0.14900
H1459       H  0.51341272  0.47016370  0.76992597     0.28200
H1460       H  0.51336744  0.01374040  0.72978112     0.28200
N1461       N  0.74521060  0.46167792  0.96435900    -0.34600
N1462       N  0.75114373  0.46614128  0.53385753    -0.55200
N1463       N  0.74533706  0.04795630  0.53387615    -0.34600
N1464       N  0.74487118  0.04289442  0.96490693    -0.55200
C1465       C  0.75209768  0.42436898  0.97015341     0.29000
C1466       C  0.74925175  0.46779248  0.93414159     0.29000
C1467       C  0.74820189  0.04231397  0.56417227     0.29000
C1468       C  0.75106506  0.08543850  0.52819370     0.29000
C1469       C  0.74637323  0.42839997  0.52794222     0.37600
C1470       C  0.74497886  0.47207076  0.56369409     0.37600
C1471       C  0.73988429  0.03772599  0.93493265     0.37600
C1472       C  0.74205142  0.08120287  0.97063781     0.37600
C1473       C  0.76062606  0.40655245  0.94324435    -0.19900
C1474       C  0.75838157  0.43356768  0.92065270    -0.19900
C1475       C  0.75553955  0.07676186  0.57781573    -0.19900
C1476       C  0.75747477  0.10382717  0.55525196    -0.19900
C1477       C  0.73748884  0.41033493  0.55435303    -0.20900
C1478       C  0.73672740  0.43784662  0.57685423    -0.20900
C1479       C  0.73426972  0.07305557  0.92159147    -0.20900
C1480       C  0.73569361  0.10045692  0.94405950    -0.20900
C1481       C  0.75069086  0.40931251  0.49953075    -0.16300
C1482       C  0.74368697  0.50311795  0.91858098    -0.16300
C1483       C  0.74929446  0.10438425  0.49974457    -0.16300
C1484       C  0.74634961  0.50812122  0.57912169    -0.16300
H1485       H  0.76747954  0.37684251  0.93995919     0.16600
H1486       H  0.76309702  0.42812352  0.89709359     0.16600
H1487       H  0.75952846  0.08182037  0.60150475     0.16600
H1488       H  0.76295405  0.13381392  0.55851375     0.16600
H1489       H  0.73158676  0.38047065  0.55717998     0.14900
H1490       H  0.73025864  0.43327145  0.60008613     0.14900
H1491       H  0.73004419  0.07872977  0.89803853     0.14900
H1492       H  0.73236870  0.13117972  0.94108423     0.14900
H1493       H  0.73515608  0.48019817  0.97977531     0.28200
H1494       H  0.73710965  0.02875831  0.51825545     0.28200
N1495       N  0.75194296  0.45424770  0.78274210    -0.34600
N1496       N  0.74941417  0.45477127  0.71417265    -0.55200
N1497       N  0.75122982  0.03536158  0.71579889    -0.34600
N1498       N  0.74904874  0.03528762  0.78465069    -0.55200
C1499       C  0.74599800  0.41694565  0.77656753     0.29000
C1500       C  0.74816916  0.45983459  0.81304273     0.29000
C1501       C  0.74721925  0.02999783  0.68551341     0.29000
C1502       C  0.74671452  0.07326712  0.72221595     0.29000
C1503       C  0.75303838  0.41658967  0.71966880     0.37600
C1504       C  0.75479877  0.46014385  0.68418714     0.37600
C1505       C  0.75430934  0.02940371  0.81450597     0.37600
C1506       C  0.75400780  0.07302137  0.77906082     0.37600
C1507       C  0.73842881  0.39862942  0.80331515    -0.19900
C1508       C  0.73999115  0.42555028  0.82622403    -0.19900
C1509       C  0.74058707  0.06533262  0.67268326    -0.19900
C1510       C  0.73975154  0.09222477  0.69566056    -0.19900
C1511       C  0.76021710  0.39755007  0.69289742    -0.20900
C1512       C  0.76133035  0.42495630  0.67058156    -0.20900
C1513       C  0.76224077  0.06363332  0.82800924    -0.20900
C1514       C  0.76211183  0.09113796  0.80570515    -0.20900
C1515       C  0.74909351  0.39798535  0.74804630    -0.16300
C1516       C  0.75290312  0.49465801  0.82926481    -0.16300
C1517       C  0.75053194  0.09205429  0.75073750    -0.16300
C1518       C  0.75223659  0.49599887  0.66863711    -0.16300
H1519       H  0.73262239  0.36872032  0.80617690     0.16600
H1520       H  0.73540125  0.42048701  0.84985727     0.16600
H1521       H  0.73666497  0.07180819  0.64932136     0.16600
H1522       H  0.73484961  0.12259380  0.69280636     0.16600
H1523       H  0.76431637  0.36696300  0.68968986     0.14900
H1524       H  0.76608071  0.41933735  0.64698428     0.14900
H1525       H  0.76778769  0.06827106  0.85140944     0.14900
H1526       H  0.76774716  0.12108020  0.80882278     0.14900
H1527       H  0.76112843  0.47320514  0.76748490     0.28200
H1528       H  0.75966423  0.01562088  0.73091097     0.28200
C1529       C  0.75821378  0.49248917  0.86303842    -0.14400
C1530       C  0.73878571  0.50372034  0.88455392    -0.29600
H1531       H  0.77752240  0.97975540  0.87060704     0.14600
H1532       H  0.71870624  0.51632710  0.87693719     0.15200
C1533       C  0.74014511  0.51023712  0.61296229    -0.14400
C1534       C  0.75795850  0.49600654  0.63451998    -0.29600
H1535       H  0.71991935  0.52349267  0.61984062     0.14600
H1536       H  0.77454031  0.97805419  0.62683228     0.15200
C1537       C  0.99192758  0.49641900  0.88664853    -0.14400
C1538       C  0.50783526  0.48948556  0.86587605    -0.29600
H1539       H  0.97174385  0.98483511  0.87859829     0.14600
H1540       H  0.52098102  0.46573267  0.87407989     0.15200
C1541       C  0.01131183  0.51452659  0.61595648    -0.14400
C1542       C  0.49549611  0.48950892  0.63667868    -0.29600
H1543       H  0.51884368  0.03801960  0.62386571     0.14600
H1544       H  0.98619153  0.46741927  0.62898076     0.15200
C1545       C  0.76568452  0.24887601  0.88695417    -0.11300
C1546       C  0.76509292  0.24806613  0.86027081    -0.12800
C1547       C  0.74489823  0.25217334  0.61148883    -0.11300
C1548       C  0.74497765  0.24864283  0.63804518    -0.12800
C1549       C  0.86214868  0.24580085  0.74174670    -0.11300
C1550       C  0.88795714  0.24662554  0.74276569    -0.12800
C1551       C  0.63801874  0.24301930  0.76118936    -0.11300
C1552       C  0.61212934  0.24154414  0.76126197    -0.12800
C1553       C  0.86250616  0.26061486  0.50958724    -0.11300
C1554       C  0.88824808  0.25496655  0.00950973    -0.12800
C1555       C  0.63878421  0.25829792  0.98785851    -0.11300
C1556       C  0.61252822  0.26600398  0.49133929    -0.12800
C1557       C  0.98953745  0.25050630  0.89041240    -0.11300
C1558       C  0.48853603  0.24874001  0.86308097    -0.12800
C1559       C  0.51109717  0.25421745  0.61297602    -0.11300
C1560       C  0.00863935  0.25870843  0.64031518    -0.12800
O1561       O  0.97327794  0.73570079  0.43789048    -0.76500
C1562       C  0.00164664  0.65127785  0.50097857     0.84600
O1563       O  0.93402740  0.77752508  0.03017922    -0.77600
O1564       O  0.52790299  0.73606830  0.06545787    -0.79100
O1565       O  0.56561569  0.78746238  0.47357817    -0.78900
O1566       O  0.50748924  0.78045389  0.43023697    -0.77500
Zn1567     Zn  0.97181299  0.72596182  0.48148559     1.55700
O1568       O  0.57143801  0.73542533  0.00613518    -0.78900
Cd1569     Cd  0.52098264  0.79513812  0.47224730     1.59700
Cd1570     Cd  0.97861241  0.78454850  0.03059022     1.59600
O1571       O  0.51207618  0.85332016  0.47987102    -0.78900
O1572       O  0.99907009  0.76063649  0.49990111    -1.89400
Cd1573     Cd  0.52998003  0.72499034  0.02067846     1.59900
O1574       O  0.98654741  0.84258157  0.02319811    -0.78800
O1575       O  0.52244395  0.66677522  0.01561298    -0.77500
C1576       C  0.91853859  0.76115465  0.51213235     0.85000
C1577       C  0.98731389  0.75762049  0.42051056     0.84700
O1578       O  0.98162429  0.66917144  0.48732359    -0.76500
C1579       C  0.58184907  0.75856299  0.98686331     0.85500
O1580       O  0.93080161  0.73593607  0.49524520    -0.76600
C1581       C  0.50004438  0.86767200  0.00022412     0.85600
C1582       C  0.51181578  0.75752612  0.08180340     0.86000
O1583       O  0.99364838  0.77022893  0.07215353    -0.79000
O1584       O  0.51682326  0.82945274  0.26935174    -0.76500
C1585       C  0.48929693  0.74287048  0.33200587     0.84600
O1586       O  0.56934048  0.71339338  0.24242113    -0.77600
O1587       O  0.98059963  0.64606084  0.26755738    -0.79100
O1588       O  0.93238479  0.76153318  0.22590285    -0.78900
O1589       O  0.98223706  0.83000505  0.23287049    -0.77500
Zn1590     Zn  0.52213477  0.77247122  0.27815157     1.55700
O1591       O  0.92872772  0.71394042  0.25928081    -0.78900
Cd1592     Cd  0.97626781  0.77173516  0.22440760     1.59700
Cd1593     Cd  0.52723068  0.70561656  0.22934257     1.59600
O1594       O  0.99140381  0.76079521  0.18200612    -0.78900
O1595       O  0.49961761  0.73961417  0.25215456    -1.89400
Cd1596     Cd  0.97077150  0.70444377  0.27299552     1.59900
O1597       O  0.52518770  0.72074305  0.18497679    -0.78800
O1598       O  0.97192131  0.71893546  0.31763622    -0.77500
C1599       C  0.58023353  0.73675131  0.26120826     0.85000
C1600       C  0.50008568  0.84856850  0.25230349     0.84700
O1601       O  0.50810788  0.76372011  0.31949923    -0.76500
C1602       C  0.91743090  0.73778472  0.24097518     0.85500
O1603       O  0.56486558  0.76058515  0.27645582    -0.76600
C1604       C  0.01089976  0.73888589  0.17086260     0.85600
C1605       C  0.99931330  0.62805558  0.25145292     0.86000
O1606       O  0.51824829  0.64747325  0.23431286    -0.79000
O1607       O  0.76221230  0.84316164  0.01876219    -0.76500
C1608       C  0.73723840  0.75149780  0.07911938     0.84600
O1609       O  0.82122340  0.73363390  0.49263766    -0.77600
O1610       O  0.72825630  0.66133558  0.01156297    -0.79100
O1611       O  0.68482625  0.78448355  0.47240897    -0.78900
O1612       O  0.73632057  0.84904478  0.47931188    -0.77500
Zn1613     Zn  0.77055277  0.78644822  0.02712145     1.55700
O1614       O  0.67924518  0.73238741  0.00496159    -0.78900
Cd1615     Cd  0.72917588  0.79146428  0.47101756     1.59700
Cd1616     Cd  0.77968330  0.72285039  0.47949930     1.59600
O1617       O  0.74382632  0.77832813  0.42877902    -0.78900
O1618       O  0.75048464  0.75257673  0.99947382    -1.89400
Cd1619     Cd  0.72062809  0.71959178  0.01838844     1.59900
O1620       O  0.77783557  0.73253434  0.43452622    -0.78800
O1621       O  0.72204731  0.72915410  0.06336443    -0.77500
C1622       C  0.83097658  0.75399904  0.01297443     0.85000
C1623       C  0.74757969  0.86109871  0.99897170     0.84700
O1624       O  0.75583645  0.77414938  0.06817559    -0.76500
C1625       C  0.66902249  0.76170099  0.48743941     0.85500
O1626       O  0.81432440  0.77826619  0.02635947    -0.76600
C1627       C  0.76264687  0.75479102  0.41839810     0.85600
C1628       C  0.75059511  0.64736606  0.49824498     0.86000
O1629       O  0.77147967  0.66480326  0.48591018    -0.79000
O1630       O  0.76770307  0.83340529  0.26194420    -0.76500
C1631       C  0.76037843  0.74533773  0.32914033     0.84600
O1632       O  0.81536905  0.71754690  0.22293037    -0.77600
O1633       O  0.73602861  0.65030965  0.26910424    -0.79100
O1634       O  0.67799380  0.76440619  0.24401968    -0.78900
O1635       O  0.72661150  0.83465670  0.23695954    -0.77500
Zn1636     Zn  0.77649659  0.77680212  0.26849922     1.55700
O1637       O  0.68337944  0.71652574  0.27692623    -0.78900
Cd1638     Cd  0.71944739  0.77641022  0.23044955     1.59700
Cd1639     Cd  0.77126032  0.70915661  0.22094368     1.59600
O1640       O  0.72182587  0.76652822  0.18539597    -0.78900
O1641       O  0.74906293  0.74286059  0.24970153    -1.89400
Cd1642     Cd  0.72779906  0.70832141  0.27781916     1.59900
O1643       O  0.75703759  0.72230767  0.17875915    -0.78800
O1644       O  0.74221351  0.72104904  0.31990130    -0.77500
C1645       C  0.82978806  0.74115978  0.23857755     0.85000
C1646       C  0.74725874  0.85190866  0.24955216     0.84700
O1647       O  0.77420060  0.76775958  0.31200977    -0.76500
C1648       C  0.66757453  0.73977668  0.26210205     0.85500
O1649       O  0.81769291  0.76556183  0.25627212    -0.76600
C1650       C  0.73769770  0.74501078  0.16882918     0.85600
C1651       C  0.75100671  0.63268408  0.24897062     0.86000
O1652       O  0.76510620  0.65093250  0.22894838    -0.79000
N1653       N  0.00339012  0.97004280  0.46561012    -0.34600
N1654       N  0.00205578  0.55134347  0.46669189    -0.55200
N1655       N  0.00210209  0.54383268  0.03382755    -0.34600
N1656       N  0.00057828  0.96041441  0.03636507    -0.55200
C1657       C  0.99645114  0.97623637  0.43610160     0.29000
C1658       C  0.99564437  0.93361430  0.47268579     0.29000
C1659       C  0.99632494  0.58127281  0.02730137     0.29000
C1660       C  0.99912368  0.53952940  0.06434924     0.29000
C1661       C  0.00509325  0.54608238  0.43630315     0.37600
C1662       C  0.00528573  0.58954800  0.47217005     0.37600
C1663       C  0.00645056  0.92269614  0.03058139     0.37600
C1664       C  0.00746048  0.96708588  0.06574385     0.37600
C1665       C  0.98417338  0.94327583  0.42448483    -0.19900
C1666       C  0.98373457  0.91648197  0.44736998    -0.19900
C1667       C  0.98976137  0.60096691  0.05399818    -0.19900
C1668       C  0.99159555  0.57482707  0.07717915    -0.17900
C1669       C  0.01021775  0.58116930  0.42259381    -0.20900
C1670       C  0.01036374  0.60851662  0.44513654    -0.20900
C1671       C  0.01698265  0.90534575  0.05647857    -0.20900
C1672       C  0.01774608  0.93341021  0.07855245    -0.20900
C1673       C  0.00047533  0.01114638  0.41968291    -0.16300
C1674       C  0.00065189  0.91428177  0.50057557    -0.16300
C1675       C  0.00486256  0.00343709  0.08083908    -0.16300
C1676       C  0.00246849  0.60839718  0.50075265    -0.16300
H1677       H  0.97566213  0.93916045  0.40211576     0.16600
H1678       H  0.97526775  0.88763869  0.44558111     0.16600
H1679       H  0.98428763  0.63127764  0.05663241     0.16600
H1680       H  0.98772843  0.58125812  0.10080568     0.16600
H1681       H  0.01337038  0.58677158  0.39882937     0.14900
H1682       H  0.01375453  0.63905814  0.44185652     0.14900
H1683       H  0.02396753  0.87564449  0.05911391     0.14900
H1684       H  0.02593352  0.92967038  0.10106347     0.14900
H1685       H  0.01520519  0.98798304  0.47953545     0.28200
H1686       H  0.01041471  0.52377964  0.01848489     0.28200
N1687       N  0.50502468  0.94871296  0.28548257    -0.34600
N1688       N  0.50131695  0.94736422  0.21713750    -0.55200
N1689       N  0.50399221  0.53024372  0.21673184    -0.34600
N1690       N  0.50120535  0.53098428  0.28620686    -0.55200
C1691       C  0.49874433  0.91128448  0.27999773     0.29000
C1692       C  0.50064762  0.95545636  0.31557671     0.29000
C1693       C  0.49730553  0.52392464  0.18715228     0.29000
C1694       C  0.49701728  0.56740077  0.22350005     0.29000
C1695       C  0.50512515  0.90932635  0.22314407     0.37600
C1696       C  0.50485769  0.95156705  0.18674653     0.37600
C1697       C  0.50730280  0.52587244  0.31597550     0.37600
C1698       C  0.50663993  0.56832906  0.27969837     0.37600
C1699       C  0.49042474  0.89406154  0.30690414    -0.19900
C1700       C  0.49179027  0.92171842  0.32921366    -0.19900
C1701       C  0.48612605  0.55765513  0.17516693    -0.19900
C1702       C  0.48610306  0.58501460  0.19787976    -0.19900
C1703       C  0.51115836  0.88946287  0.19641797    -0.20900
C1704       C  0.51080743  0.91601739  0.17353241    -0.20900
C1705       C  0.51673006  0.56014514  0.32827470    -0.20900
C1706       C  0.51608014  0.58701555  0.30551287    -0.20900
C1707       C  0.50158033  0.89141173  0.25184749    -0.16300
C1708       C  0.50508591  0.99085084  0.33130263    -0.16300
C1709       C  0.50160508  0.58675293  0.25150859    -0.16300
C1710       C  0.50150249  0.98677349  0.17058310    -0.16300
H1711       H  0.48398018  0.86449189  0.31026825     0.16600
H1712       H  0.48656924  0.91737314  0.35276711     0.16600
H1713       H  0.47798309  0.56196538  0.15268244     0.16600
H1714       H  0.47848929  0.61452914  0.19580931     0.16600
H1715       H  0.51535784  0.85885281  0.19353004     0.14900
H1716       H  0.51462512  0.90969865  0.14989032     0.14900
H1717       H  0.52400198  0.56518779  0.35100556     0.14900
H1718       H  0.52223685  0.61690733  0.30767579     0.14900
H1719       H  0.51444601  0.96707376  0.26993185     0.28200
H1720       H  0.51504908  0.51171313  0.23101368     0.28200
N1721       N  0.74875849  0.96570065  0.46548490    -0.34600
N1722       N  0.74524005  0.96086326  0.03372024    -0.55200
N1723       N  0.74515197  0.54312666  0.03322149    -0.34600
N1724       N  0.75114116  0.54747907  0.46407083    -0.55200
C1725       C  0.75505262  0.92832793  0.47184878     0.29000
C1726       C  0.75342141  0.97123539  0.43525281     0.29000
C1727       C  0.74904987  0.53721049  0.06334834     0.29000
C1728       C  0.75088322  0.58058915  0.02743644     0.29000
C1729       C  0.74124254  0.92295806  0.02769508     0.37600
C1730       C  0.73889327  0.96648266  0.06354395     0.37600
C1731       C  0.74674328  0.54199186  0.43398888     0.37600
C1732       C  0.74780205  0.58576989  0.46965342     0.37600
C1733       C  0.76400400  0.90996050  0.44532949    -0.19900
C1734       C  0.76238390  0.93653308  0.42239054    -0.19900
C1735       C  0.75697372  0.57152289  0.07682264    -0.19900
C1736       C  0.75830872  0.59873333  0.05427552    -0.19900
C1737       C  0.73247658  0.90451691  0.05398546    -0.20900
C1738       C  0.73105979  0.93197230  0.07654987    -0.20900
C1739       C  0.74118766  0.57718675  0.42040460    -0.20900
C1740       C  0.74186350  0.60473489  0.44282741    -0.20900
C1741       C  0.74636238  0.90414632  0.99930343    -0.16300
C1742       C  0.74869787  0.00649326  0.41915023    -0.16300
C1743       C  0.74788612  0.59977821  0.99920575    -0.16300
C1744       C  0.74045184  0.00236527  0.07918720    -0.16300
H1745       H  0.77064401  0.88010489  0.44245987     0.16600
H1746       H  0.76738647  0.93026624  0.39905303     0.16600
H1747       H  0.76166316  0.57639525  0.10039453     0.16600
H1748       H  0.76388435  0.62870481  0.05742342     0.16600
H1749       H  0.72719476  0.87441317  0.05670011     0.14900
H1750       H  0.72469242  0.92710914  0.09977294     0.14900
H1751       H  0.73730283  0.58269334  0.39676247     0.14900
H1752       H  0.73824585  0.63536949  0.43965446     0.14900
H1753       H  0.73859378  0.98463583  0.48048564     0.28200
H1754       H  0.73620872  0.52415290  0.01788785     0.28200
N1755       N  0.75244078  0.95169312  0.28318401    -0.34600
N1756       N  0.74719994  0.95084504  0.21461710    -0.55200
N1757       N  0.75438279  0.53254511  0.21452602    -0.34600
N1758       N  0.75353727  0.53348580  0.28345878    -0.55200
C1759       C  0.74674288  0.91407494  0.27781902     0.29000
C1760       C  0.75047738  0.95788658  0.31363068     0.29000
C1761       C  0.74966639  0.52636167  0.18445155     0.29000
C1762       C  0.74825224  0.57011521  0.22081780     0.29000
C1763       C  0.74996316  0.91262350  0.22039023     0.37600
C1764       C  0.75078752  0.95526877  0.18424946     0.37600
C1765       C  0.75981135  0.52846747  0.31317910     0.37600
C1766       C  0.75759806  0.57124368  0.27724533     0.37600
C1767       C  0.74126573  0.89607905  0.30523966    -0.19900
C1768       C  0.74375615  0.92354549  0.32767825    -0.19900
C1769       C  0.74095011  0.56086948  0.17158555    -0.19900
C1770       C  0.73950472  0.58800490  0.19439608    -0.19900
C1771       C  0.75463860  0.89268956  0.19341173    -0.20900
C1772       C  0.75512111  0.91950857  0.17070622    -0.20900
C1773       C  0.76766857  0.56317843  0.32593720    -0.20900
C1774       C  0.76636962  0.59015648  0.30331247    -0.20900
C1775       C  0.74784141  0.89469638  0.24926099    -0.16300
C1776       C  0.75532150  0.99333462  0.32922804    -0.16300
C1777       C  0.75227110  0.58964827  0.24901391    -0.16300
C1778       C  0.74900079  0.99090778  0.16835809    -0.16300
H1779       H  0.73613879  0.86606569  0.30883779     0.16600
H1780       H  0.74070899  0.91877013  0.35161065     0.16600
H1781       H  0.73601714  0.56663519  0.14831582     0.16600
H1782       H  0.73302183  0.61784614  0.19150083     0.16600
H1783       H  0.75763800  0.86188044  0.19029120     0.14900
H1784       H  0.75819698  0.91317221  0.14693024     0.14900
H1785       H  0.77385865  0.56850886  0.34905837     0.14900
H1786       H  0.77160387  0.62031968  0.30587189     0.14900
H1787       H  0.76006651  0.97053202  0.26702198     0.28200
H1788       H  0.76427668  0.51375600  0.22944366     0.28200
C1789       C  0.76141135  0.99203636  0.36304353    -0.14400
C1790       C  0.74353819  0.00667374  0.38497073    -0.29600
H1791       H  0.78313250  0.47832278  0.37006972     0.14600
H1792       H  0.72424313  0.02148249  0.37747986     0.15200
C1793       C  0.73508395  0.00436707  0.11314640    -0.14400
C1794       C  0.75336187  0.98975893  0.13407354    -0.29600
H1795       H  0.71556465  0.01891739  0.12074661     0.14600
H1796       H  0.77792365  0.47541830  0.12560799     0.15200
C1797       C  0.99688379  0.01264948  0.38536302    -0.14400
C1798       C  0.50805983  0.98903076  0.36565845    -0.29600
H1799       H  0.98499033  0.53604283  0.37767759     0.14600
H1800       H  0.52046195  0.96501556  0.37461494     0.15200
C1801       C  0.00854091  0.00693537  0.11506495    -0.14400
C1802       C  0.49798489  0.98440253  0.13626462    -0.29600
H1803       H  0.52158983  0.53394937  0.12489822     0.14600
H1804       H  0.98195139  0.96132795  0.12763234     0.15200
C1805       C  0.76581295  0.75192095  0.38694528    -0.11300
C1806       C  0.76487128  0.74846732  0.36030809    -0.12800
C1807       C  0.73409491  0.74994374  0.11067034    -0.11300
C1808       C  0.73427753  0.74739263  0.13740919    -0.12800
C1809       C  0.86071324  0.73965349  0.23703214    -0.11300
C1810       C  0.88664758  0.73851283  0.23785426    -0.12800
C1811       C  0.63683258  0.73773885  0.26498977    -0.11300
C1812       C  0.61093282  0.73688292  0.26456427    -0.12800
C1813       C  0.86174732  0.75613940  0.01693000    -0.11300
C1814       C  0.88767990  0.76095308  0.51489027    -0.12800
C1815       C  0.63822725  0.76449940  0.48474515    -0.11300
C1816       C  0.61252172  0.75883261  0.98258494    -0.12800
C1817       C  0.98287946  0.75384123  0.38930923    -0.11300
C1818       C  0.48586221  0.74643306  0.36339598    -0.12800
C1819       C  0.51472260  0.75461474  0.11326128    -0.11300
C1820       C  0.01545369  0.74028371  0.13953878    -0.12800
O1821       O  0.97256591  0.73088954  0.93757023    -0.76500
C1822       C  0.99898481  0.64194137  0.99840650     0.84600
O1823       O  0.93268596  0.78683277  0.52599510    -0.77600
O1824       O  0.52630881  0.73766281  0.56475884    -0.79100
O1825       O  0.56608769  0.78157830  0.97180336    -0.78900
O1826       O  0.50696283  0.77898790  0.93038679    -0.77500
Zn1827     Zn  0.97085716  0.71889638  0.98125158     1.55700
O1828       O  0.57096156  0.73977832  0.50661849    -0.78900
Cd1829     Cd  0.52182794  0.79120649  0.97211303     1.59700
Cd1830     Cd  0.97676671  0.79591020  0.52753214     1.59600
O1831       O  0.51470123  0.84932091  0.98027397    -0.78900
O1832       O  0.99953553  0.75042312  0.00090332    -1.89400
Cd1833     Cd  0.52936782  0.72780196  0.51994550     1.59900
O1834       O  0.98441576  0.85393740  0.51959161    -0.78800
O1835       O  0.52261570  0.66933949  0.51385421    -0.77500
C1836       C  0.91878524  0.75482676  0.01450301     0.85000
C1837       C  0.98783003  0.75260445  0.92111878     0.84700
O1838       O  0.97878633  0.66129971  0.98621842    -0.76500
C1839       C  0.58144544  0.76421333  0.48841149     0.85500
O1840       O  0.93010209  0.73110905  0.99564593    -0.76600
C1841       C  0.49774370  0.87132405  0.50032670     0.85600
C1842       C  0.51002228  0.75865105  0.58125334     0.86000
O1843       O  0.99041013  0.78451012  0.57000946    -0.79000
O1844       O  0.51470372  0.83301287  0.76712167    -0.76500
C1845       C  0.48820623  0.74731933  0.83145671     0.84600
O1846       O  0.56874758  0.71733992  0.74205606    -0.77600
O1847       O  0.98301134  0.65601218  0.76523025    -0.79100
O1848       O  0.93106395  0.77111535  0.72651411    -0.78900
O1849       O  0.97930492  0.84152353  0.73556415    -0.77500
Zn1850     Zn  0.52085752  0.77652623  0.77709346     1.55700
O1851       O  0.92910896  0.72126940  0.75799860    -0.78900
Cd1852     Cd  0.97445771  0.78368146  0.72544719     1.59700
Cd1853     Cd  0.52658236  0.70832132  0.72924234     1.59600
O1854       O  0.98916454  0.77660533  0.68256840    -0.78900
O1855       O  0.49872371  0.74258175  0.75153614    -1.89400
Cd1856     Cd  0.97133746  0.71359192  0.77151672     1.59900
O1857       O  0.52412809  0.72229438  0.68465640    -0.78800
O1858       O  0.97245207  0.72607780  0.81641036    -0.77500
C1859       C  0.57950372  0.74146903  0.76036922     0.85000
C1860       C  0.49779556  0.85147440  0.74982192     0.84700
O1861       O  0.50665718  0.76875251  0.81885969    -0.76500
C1862       C  0.91701644  0.74547772  0.74056618     0.85500
O1863       O  0.56390944  0.76542755  0.77530594    -0.76600
C1864       C  0.00868978  0.75590397  0.67021088     0.85600
C1865       C  0.00176393  0.63917353  0.74843979     0.86000
O1866       O  0.51769353  0.65005056  0.73478759    -0.79000
O1867       O  0.76435587  0.84733740  0.51957187    -0.76500
C1868       C  0.73895208  0.75353867  0.57923441     0.84600
O1869       O  0.82131759  0.72804110  0.99550024    -0.77600
O1870       O  0.72963718  0.66551483  0.51066150    -0.79100
O1871       O  0.68519074  0.77625996  0.96904735    -0.78900
O1872       O  0.73392681  0.84303732  0.97870413    -0.77500
Zn1873     Zn  0.77131468  0.79021523  0.52747127     1.55700
O1874       O  0.67951601  0.73678664  0.50537758    -0.78900
Cd1875     Cd  0.72929123  0.78504323  0.96988418     1.59700
Cd1876     Cd  0.77996027  0.71699070  0.98096299     1.59600
O1877       O  0.74634757  0.77247021  0.92853816    -0.78900
O1878       O  0.75066026  0.75764643  0.49946155    -1.89400
Cd1879     Cd  0.72124675  0.72367546  0.51808945     1.59900
O1880       O  0.77971715  0.72613084  0.93561969    -0.78800
O1881       O  0.72349188  0.73182306  0.56322982    -0.77500
C1882       C  0.83107786  0.75804365  0.51123869     0.85000
C1883       C  0.75050824  0.86617198  0.49965524     0.84700
O1884       O  0.75720510  0.77685041  0.56851330    -0.76500
C1885       C  0.66912588  0.75514407  0.98521309     0.85500
O1886       O  0.81469233  0.78106936  0.52614574    -0.76600
C1887       C  0.76542921  0.74879762  0.91888730     0.85600
C1888       C  0.74902833  0.64246614  0.99952215     0.86000
O1889       O  0.77052014  0.65910043  0.98758421    -0.79000
O1890       O  0.76665718  0.83574062  0.76304444    -0.76500
C1891       C  0.76232247  0.74507162  0.82970856     0.84600
O1892       O  0.81549713  0.71917636  0.72438833    -0.77600
O1893       O  0.73331985  0.65391129  0.76966694    -0.79100
O1894       O  0.67803700  0.76671758  0.74214193    -0.78900
O1895       O  0.72711660  0.83629500  0.73537210    -0.77500
Zn1896     Zn  0.77631612  0.77925267  0.76921727     1.55700
O1897       O  0.68255735  0.72248231  0.77814559    -0.78900
Cd1898     Cd  0.71994548  0.77811052  0.72958466     1.59700
Cd1899     Cd  0.77149748  0.71063230  0.72247700     1.59600
O1900       O  0.72364417  0.76736562  0.68481998    -0.78900
O1901       O  0.74897844  0.74529717  0.75030797    -1.89400
Cd1902     Cd  0.72688692  0.71209344  0.77867872     1.59900
O1903       O  0.75831830  0.72217941  0.67969158    -0.78800
O1904       O  0.74301248  0.72243011  0.82048929    -0.77500
C1905       C  0.82958939  0.74444317  0.73869934     0.85000
C1906       C  0.74690219  0.85386000  0.74914186     0.84700
O1907       O  0.77585056  0.76808963  0.81275357    -0.76500
C1908       C  0.66711892  0.74425673  0.76161403     0.85500
O1909       O  0.81725737  0.76954094  0.75558134    -0.76600
C1910       C  0.73957397  0.74511584  0.66895281     0.85600
C1911       C  0.74892254  0.63561742  0.75046533     0.86000
O1912       O  0.76455481  0.65300851  0.73127217    -0.79000
N1913       N  0.00122671  0.95813086  0.96722612    -0.34600
N1914       N  0.99800453  0.54131990  0.96544858    -0.55200
N1915       N  0.00638130  0.55208259  0.53516460    -0.34600
N1916       N  0.00077872  0.97082829  0.53519179    -0.55200
C1917       C  0.99413026  0.96294894  0.93762345     0.29000
C1918       C  0.99544180  0.92116111  0.97472669     0.29000
C1919       C  0.00064143  0.58973338  0.52931760     0.29000
C1920       C  0.00323694  0.54688040  0.56556424     0.29000
C1921       C  0.00006832  0.53504140  0.93511842     0.37600
C1922       C  0.00033866  0.57977576  0.97002862     0.37600
C1923       C  0.00600377  0.93307980  0.52874188     0.37600
C1924       C  0.00720725  0.97640348  0.56488193     0.37600
C1925       C  0.98409670  0.92838706  0.92630455    -0.19900
C1926       C  0.98477481  0.90225723  0.94954189    -0.19900
C1927       C  0.99405139  0.60867063  0.55630990    -0.19900
C1928       C  0.99585236  0.58186779  0.57900038    -0.17900
C1929       C  0.00321566  0.56986993  0.92040308    -0.20900
C1930       C  0.00366811  0.59804518  0.94238791    -0.20900
C1931       C  0.01566411  0.91462155  0.55457363    -0.20900
C1932       C  0.01652254  0.94196465  0.57725671    -0.20900
C1933       C  0.99693920  0.99735368  0.92031467    -0.16300
C1934       C  0.00119590  0.90296174  0.00290750    -0.16300
C1935       C  0.00491915  0.01243350  0.58062051    -0.16300
C1936       C  0.99826313  0.59920632  0.99841397    -0.16300
H1937       H  0.97655982  0.92249987  0.90379166     0.16600
H1938       H  0.97800568  0.87256797  0.94793741     0.16600
H1939       H  0.98851943  0.63887873  0.55948171     0.16600
H1940       H  0.99185377  0.58764715  0.60268085     0.16600
H1941       H  0.00428347  0.57483163  0.89637794     0.14900
H1942       H  0.00569836  0.62866418  0.93831215     0.14900
H1943       H  0.02187585  0.88456981  0.55683130     0.14900
H1944       H  0.02391391  0.93712704  0.59997214     0.14900
H1945       H  0.01212697  0.97730945  0.98090172     0.28200
H1946       H  0.01461120  0.53239397  0.51947584     0.28200
N1947       N  0.50171628  0.95066388  0.78408873    -0.34600
N1948       N  0.49808280  0.95092875  0.71565121    -0.55200
N1949       N  0.50253097  0.53313152  0.71685905    -0.34600
N1950       N  0.50032845  0.53333636  0.78625726    -0.55200
C1951       C  0.49494502  0.91361913  0.77785378     0.29000
C1952       C  0.49732864  0.95651465  0.81429824     0.29000
C1953       C  0.49563537  0.52691134  0.68733047     0.29000
C1954       C  0.49541271  0.57017161  0.72384521     0.29000
C1955       C  0.50212228  0.91281880  0.72113992     0.37600
C1956       C  0.50193772  0.95591168  0.68539500     0.37600
C1957       C  0.50660327  0.52795238  0.81596620     0.37600
C1958       C  0.50551359  0.57082933  0.77994013     0.37600
C1959       C  0.48604692  0.89583427  0.80433224    -0.19900
C1960       C  0.48772566  0.92269956  0.82719701    -0.19900
C1961       C  0.48405967  0.56056019  0.67558551    -0.19900
C1962       C  0.48406070  0.58779270  0.69842876    -0.19900
C1963       C  0.50858630  0.89364236  0.69422721    -0.20900
C1964       C  0.50831449  0.92075725  0.67173121    -0.20900
C1965       C  0.51578689  0.56223715  0.82844556    -0.20900
C1966       C  0.51490173  0.58935571  0.80584596    -0.20900
C1967       C  0.49843528  0.89431713  0.74955763    -0.16300
C1968       C  0.50275636  0.99105285  0.83076951    -0.16300
C1969       C  0.50044075  0.58944407  0.75180332    -0.16300
C1970       C  0.49835767  0.99145309  0.66977719    -0.16300
H1971       H  0.47921995  0.86631382  0.80706510     0.16600
H1972       H  0.48234375  0.91778054  0.85063835     0.16600
H1973       H  0.47586417  0.56495624  0.65311202     0.16600
H1974       H  0.47630672  0.61726889  0.69655682     0.16600
H1975       H  0.51297774  0.86313593  0.69097147     0.14900
H1976       H  0.51242025  0.91505024  0.64805817     0.14900
H1977       H  0.52312334  0.56709072  0.85116301     0.14900
H1978       H  0.52089926  0.61929044  0.80816907     0.14900
H1979       H  0.51178944  0.96907852  0.76902432     0.28200
H1980       H  0.51394834  0.51466753  0.73090451     0.28200
N1981       N  0.74320712  0.96075898  0.96498408    -0.34600
N1982       N  0.74938352  0.96579452  0.53459760    -0.55200
N1983       N  0.74805578  0.54839391  0.53270804    -0.34600
N1984       N  0.74641646  0.54347247  0.96466375    -0.55200
C1985       C  0.74981631  0.92338324  0.97095809     0.29000
C1986       C  0.74736053  0.96663917  0.93475931     0.29000
C1987       C  0.75066960  0.54316508  0.56307875     0.29000
C1988       C  0.75295620  0.58602035  0.52677791     0.29000
C1989       C  0.74524736  0.92797855  0.52843549     0.37600
C1990       C  0.74255149  0.97134928  0.56431402     0.37600
C1991       C  0.74081971  0.53858549  0.93479116     0.37600
C1992       C  0.74315618  0.58158638  0.97081987     0.37600
C1993       C  0.75832495  0.90535772  0.94409830    -0.19900
C1994       C  0.75622421  0.93223200  0.92140179    -0.19900
C1995       C  0.75709765  0.57808864  0.57656056    -0.19900
C1996       C  0.75871299  0.60497509  0.55378836    -0.19900
C1997       C  0.73594842  0.90955009  0.55454053    -0.20900
C1998       C  0.73436192  0.93689804  0.57713104    -0.20900
C1999       C  0.73430201  0.57393559  0.92191706    -0.20900
C2000       C  0.73584285  0.60105848  0.94460077    -0.20900
C2001       C  0.75058601  0.90919998  0.50009634    -0.16300
C2002       C  0.74231176  0.00197514  0.91903152    -0.16300
C2003       C  0.75061705  0.60458533  0.49818695    -0.16300
C2004       C  0.74371908  0.00720020  0.57998144    -0.16300
H2005       H  0.76519146  0.87565592  0.94085239     0.16600
H2006       H  0.76101181  0.92666438  0.89786854     0.16600
H2007       H  0.76037561  0.58364850  0.60033504     0.16600
H2008       H  0.76327707  0.63528032  0.55691599     0.16600
H2009       H  0.73036008  0.87953873  0.55713051     0.14900
H2010       H  0.72749946  0.93204050  0.60019993     0.14900
H2011       H  0.72949169  0.57982753  0.89852528     0.14900
H2012       H  0.73209225  0.63176200  0.94199546     0.14900
H2013       H  0.73337348  0.97963645  0.98028056     0.28200
H2014       H  0.74032853  0.52877195  0.51709841     0.28200
N2015       N  0.75044848  0.95297033  0.78335094    -0.34600
N2016       N  0.74772364  0.95332993  0.71491661    -0.55200
N2017       N  0.75112135  0.53650284  0.71529837    -0.34600
N2018       N  0.74896726  0.53619824  0.78432489    -0.55200
C2019       C  0.74423041  0.91572199  0.77731470     0.29000
C2020       C  0.74662494  0.95878102  0.81360527     0.29000
C2021       C  0.74684409  0.53108501  0.68507760     0.29000
C2022       C  0.74476617  0.57382045  0.72207397     0.29000
C2023       C  0.75019980  0.91497291  0.72028824     0.37600
C2024       C  0.75201040  0.95835769  0.68472121     0.37600
C2025       C  0.75504240  0.53047315  0.81399591     0.37600
C2026       C  0.75367170  0.57389045  0.77853906     0.37600
C2027       C  0.73639391  0.89766376  0.80407237    -0.19900
C2028       C  0.73804400  0.92471168  0.82687197    -0.19900
C2029       C  0.73801574  0.56581797  0.67263181    -0.19900
C2030       C  0.73617470  0.59234747  0.69586273    -0.19900
C2031       C  0.75541746  0.89551654  0.69321931    -0.20900
C2032       C  0.75648480  0.92279861  0.67085577    -0.20900
C2033       C  0.76326505  0.56475499  0.82720896    -0.20900
C2034       C  0.76250131  0.59216399  0.80485351    -0.20900
C2035       C  0.74706885  0.89661026  0.74886773    -0.16300
C2036       C  0.75170975  0.99355733  0.82974986    -0.16300
C2037       C  0.74897776  0.59274408  0.75041741    -0.16300
C2038       C  0.75068255  0.99435199  0.66923742    -0.16300
H2039       H  0.73026966  0.86787888  0.80698001     0.16600
H2040       H  0.73326535  0.91987005  0.85049578     0.16600
H2041       H  0.73345921  0.57218442  0.64936498     0.16600
H2042       H  0.72978751  0.62230660  0.69340731     0.16600
H2043       H  0.75825311  0.86473301  0.68980166     0.14900
H2044       H  0.75999262  0.91688080  0.64707876     0.14900
H2045       H  0.76941673  0.56947253  0.85042522     0.14900
H2046       H  0.76811799  0.62215542  0.80772066     0.14900
H2047       H  0.75987511  0.97166232  0.76808844     0.28200
H2048       H  0.76120741  0.51755677  0.72998952     0.28200
C2049       C  0.75692577  0.99123529  0.86354318    -0.14400
C2050       C  0.73743103  0.00235913  0.88500819    -0.29600
H2051       H  0.77883908  0.48105249  0.87004133     0.14600
H2052       H  0.71736335  0.01495656  0.87735141     0.15200
C2053       C  0.73793557  0.00907216  0.61388240    -0.14400
C2054       C  0.75568087  0.99374818  0.63502547    -0.29600
H2055       H  0.71845311  0.02390608  0.62124620     0.14600
H2056       H  0.77746914  0.48151515  0.62671096     0.15200
C2057       C  0.99237108  0.99495613  0.88622244    -0.14400
C2058       C  0.50684300  0.98766708  0.86498467    -0.29600
H2059       H  0.97163369  0.48542629  0.87881573     0.14600
H2060       H  0.51914015  0.96289716  0.87279894     0.15200
C2061       C  0.00862126  0.01547745  0.61490129    -0.14400
C2062       C  0.49450919  0.98969142  0.63551349    -0.29600
H2063       H  0.52020996  0.53741448  0.62497915     0.14600
H2064       H  0.98195666  0.96998132  0.62758792     0.15200
C2065       C  0.76983318  0.74658172  0.88748145    -0.11300
C2066       C  0.76850138  0.74536864  0.86071235    -0.12800
C2067       C  0.73654703  0.75042795  0.61076675    -0.11300
C2068       C  0.73688921  0.74708825  0.63744238    -0.12800
C2069       C  0.86043604  0.74414806  0.73662844    -0.11300
C2070       C  0.88633558  0.74440023  0.73732112    -0.12800
C2071       C  0.63624217  0.74293026  0.76417086    -0.11300
C2072       C  0.61029237  0.74215466  0.76363207    -0.12800
C2073       C  0.86174971  0.76005857  0.51470967    -0.11300
C2074       C  0.88778068  0.75631510  0.01739155    -0.12800
C2075       C  0.63844466  0.75766102  0.98198651    -0.11300
C2076       C  0.61225732  0.76547069  0.48501424    -0.12800
C2077       C  0.98326885  0.75242945  0.88973765    -0.11300
C2078       C  0.48453901  0.75047719  0.86290989    -0.12800
C2079       C  0.51273254  0.75488423  0.61262436    -0.11300
C2080       C  0.01255151  0.75931388  0.63892662    -0.12800
loop_ 
_geom_bond_atom_site_label_1 
_geom_bond_atom_site_label_2 
_geom_bond_distance 
_geom_bond_site_symmetry_2 
_ccdc_geom_bond_type 
O1           C17   1.268       .  A
O1           Zn7   1.960       .  S
C2           O18   1.273       .  A
C2         O1315   1.271       .  A
C2          C116   1.482       .  S
O3          C276   1.274       .  A
O3          Cd10   2.091       .  S
O4           C22   1.268       .  A
O4          Cd13   2.012       .  S
O5          C279   1.273       .  A
O5           Cd9   2.079       .  S
O6         C1057   1.270   1_455  A
O6           Cd9   2.030       .  S
Zn7          O18   2.024       .  S
Zn7          O20   2.018       .  S
Zn7          O12   1.939       .  S
O8           C19   1.271   1_554  A
O8          Cd13   2.067       .  S
Cd9          O11   2.065       .  S
Cd9        O1052   1.993   1_455  S
Cd10         O14   2.081       .  S
Cd10         O23   2.033       .  S
Cd10        O272   1.997       .  S
O11         C281   1.273       .  A
O12       Cd1049   1.996       .  S
O12        Cd270   1.998       .  S
O12       Cd1313   1.991       .  S
Cd13         O15   2.068       .  S
Cd13       O1312   1.989   1_455  S
O14        C1061   1.275       .  A
O15        C1302   1.273   1_554  A
C16          O20   1.271       .  A
C16         O263   1.275       .  A
C16         C254   1.445       .  S
C17        O1046   1.271       .  A
C17         C257   1.402       .  S
C19         O265   1.273       .  A
C19         C256   1.439       .  S
C21         O271   1.274   1_554  A
C21        O1054   1.274   1_455  A
C21        C1414   1.487       .  S
C22        O1063   1.270   1_455  A
C22         C259   1.395       .  S
O23        C1062   1.271       .  A
O24          C40   1.272       .  A
O24         Zn30   2.020       .  S
C25          O41   1.268   1_655  A
C25        O1078   1.271       .  A
C25         C258   1.401       .  S
O26          C39   1.272       .  A
O26         Cd33   2.074       .  S
O27          C45   1.275       .  A
O27         Cd36   2.073       .  S
O28          C42   1.271       .  A
O28         Cd32   2.067       .  S
O29        C1080   1.271       .  A
O29         Cd32   2.058       .  S
Zn30         O41   1.958       .  S
Zn30         O43   2.023       .  S
Zn30         O35   1.936       .  S
O31          C42   1.273       .  A
O31         Cd36   2.078       .  S
Cd32         O34   2.011       .  S
Cd32       O1075   1.990       .  S
Cd33         O37   2.020       .  S
Cd33         O46   2.075       .  S
Cd33         O35   1.992       .  S
O34          C44   1.267       .  A
O35       Cd1072   1.991   1_455  S
O35       Cd1076   1.993   1_455  S
Cd36         O38   2.029       .  S
Cd36       O1075   1.993       .  S
O37        C1084   1.268       .  A
O38        C1065   1.270       .  A
C39          O43   1.272       .  A
C39         C252   1.439       .  S
C40        O1069   1.271   1_455  A
C40         C147   1.484       .  S
C42         C250   1.438       .  S
C44        O1077   1.271       .  A
C44         C260   1.399       .  S
C45        O1086   1.276       .  A
C45        C1189   1.488       .  S
O46        C1085   1.274       .  A
O47          C63   1.273       .  A
O47         Zn53   2.025       .  S
C48          O64   1.270       .  A
C48          O61   1.268       .  A
C48         C247   1.398       .  S
O49         C322   1.273       .  A
O49         Cd56   2.083       .  S
O50         C328   1.273   1_554  A
O50         Cd59   2.062       .  S
O51          C65   1.271       .  A
O51         Cd55   2.072       .  S
O52         C323   1.272       .  A
O52         Cd55   2.058       .  S
Zn53         O64   1.969       .  S
Zn53         O66   2.037       .  S
Zn53         O58   1.941       .  S
O54         C325   1.271   1_554  A
O54         Cd59   2.068       .  S
Cd55         O57   2.019       .  S
Cd55        O318   1.988       .  S
Cd56         O60   2.019       .  S
Cd56         O69   2.080       .  S
Cd56        O318   1.995       .  S
O57          C67   1.269       .  A
O58         Cd59   1.989       .  S
O58        Cd315   1.988   1_554  S
O58        Cd316   1.999   1_554  S
Cd59         O61   2.016       .  S
O60          C67   1.268       .  A
C62          O66   1.273       .  A
C62         O309   1.273   1_554  A
C62         C253   1.445       .  S
C63         O312   1.273   1_554  A
C63         C181   1.487       .  S
C65         O314   1.272       .  A
C65         C255   1.437       .  S
C67         C245   1.396       .  S
C68          O69   1.274       .  A
C68         O310   1.273       .  A
C68         C443   1.483       .  S
O70          C86   1.273       .  A
O70         Zn76   2.025       .  S
C71          O87   1.267       .  A
C71          O84   1.271       .  A
C71         C246   1.397       .  S
O72          C85   1.271       .  A
O72         Cd79   2.071       .  S
O73          C91   1.274       .  A
O73         Cd82   2.070       .  S
O74          C88   1.272       .  A
O74         Cd78   2.071       .  S
O75          C86   1.273       .  A
O75         Cd78   2.073       .  S
Zn76         O87   1.950       .  S
Zn76         O89   2.020       .  S
Zn76         O81   1.937       .  S
O77          C88   1.272       .  A
O77         Cd82   2.077       .  S
Cd78         O80   2.017       .  S
Cd78         O81   1.991       .  S
Cd79         O83   2.022       .  S
Cd79         O92   2.066       .  S
Cd79         O81   1.991       .  S
O80          C90   1.268       .  A
O81         Cd82   1.992       .  S
Cd82         O84   2.028       .  S
O83          C90   1.270       .  A
C85          O89   1.271       .  A
C85         C249   1.438       .  S
C86         C215   1.484       .  S
C88         C251   1.439       .  S
C90         C248   1.397       .  S
C91          O92   1.273       .  A
C91         C217   1.489       .  S
N93          C98   1.355       .  A
N93          C97   1.367       .  A
N93         H125   1.040       .  S
N94         C101   1.361       .  A
N94         C102   1.354       .  A
N95         C100   1.366       .  A
N95          C99   1.355       .  A
N95         H126   1.039       .  S
N96         C103   1.355       .  A
N96         C104   1.364       .  A
C97         C105   1.384       .  A
C97         C113   1.429       .  A
C98         C114   1.428       .  A
C98         C106   1.390       .  A
C99         C107   1.389       .  A
C99         C376   1.426       .  A
C100        C108   1.385       .  A
C100        C635   1.428       .  A
C101        C109   1.385       .  A
C101        C633   1.423       .  A
C102        C116   1.422       .  A
C102        C110   1.388       .  A
C103        C111   1.390       .  A
C103        C374   1.428       .  A
C104        C112   1.383       .  A
C104        C115   1.427       .  A
C105        C106   1.378       .  A
C105        H117   1.080       .  S
C106        H118   1.082       .  S
C107        C108   1.376       .  A
C107        H119   1.082       .  S
C108        H120   1.080       .  S
C109        C110   1.372       .  A
C109        H121   1.080       .  S
C110        H122   1.082       .  S
C111        C112   1.376       .  A
C111        H123   1.082       .  S
C112        H124   1.080       .  S
C113        C621   1.425       .  A
C113        C237   1.531       .  S
C114       C1321   1.488       .  S
C114        C363   1.427       .  A
C115        C620   1.428       .  A
C115        C241   1.533       .  S
C116        C359   1.425       .  A
N127        C132   1.365       .  A
N127        C131   1.354   1_455  A
N127        H159   1.040       .  S
N128        C135   1.354       .  A
N128        C136   1.362       .  A
N129        C134   1.355   1_455  A
N129        C133   1.367   1_455  A
N129        H160   1.040       .  S
N130        C137   1.364       .  A
N130        C138   1.355       .  A
C131        C139   1.390       .  A
C131        C147   1.425   1_655  A
C132        C148   1.426       .  A
C132        C140   1.384   1_455  A
C133        C141   1.384       .  A
C133        C670   1.431   1_545  A
C134        C149   1.429   1_655  A
C134        C142   1.390       .  A
C135        C147   1.424       .  A
C135        C143   1.389       .  A
C136        C150   1.424   1_455  A
C136        C144   1.384       .  A
C137        C145   1.383       .  A
C137        C668   1.426   1_545  A
C138        C146   1.389       .  A
C138        C149   1.425       .  A
C139        C140   1.376       .  A
C139        H151   1.082       .  S
C140        H152   1.081       .  S
C141        C142   1.380       .  A
C141        H153   1.080       .  S
C142        H154   1.082       .  S
C143        C144   1.371       .  A
C143        H155   1.082       .  S
C144        H156   1.079       .  S
C145        C146   1.375       .  A
C145        H157   1.080       .  S
C146        H158   1.082       .  S
C148        C657   1.424       .  A
C148        C238   1.532       .  S
C149       C1085   1.489       .  S
C150        C653   1.429       .  A
C150        C242   1.531       .  S
N161        C166   1.368       .  A
N161        C165   1.355       .  A
N161        H193   1.038       .  S
N162        C169   1.354       .  A
N162        C170   1.361       .  A
N163        C168   1.354       .  A
N163        C167   1.365       .  A
N163        H194   1.037       .  S
N164        C171   1.362       .  A
N164        C172   1.354       .  A
C165        C173   1.391       .  A
C165        C441   1.434       .  A
C166        C182   1.433       .  A
C166        C174   1.385       .  A
C167        C175   1.383       .  A
C167        C704   1.424       .  A
C168        C183   1.428   1_554  A
C168        C176   1.392       .  A
C169        C181   1.426       .  A
C169        C177   1.390       .  A
C170        C184   1.422       .  A
C170        C178   1.383       .  A
C171        C179   1.386       .  A
C171        C702   1.427       .  A
C172        C180   1.389       .  A
C172        C443   1.425       .  A
C173        C174   1.376       .  A
C173        H185   1.082       .  S
C174        H186   1.077       .  S
C175        C176   1.376       .  A
C175        H187   1.081       .  S
C176        H188   1.082       .  S
C177        C178   1.376       .  A
C177        H189   1.082       .  S
C178        H190   1.082       .  S
C179        C180   1.376       .  A
C179        H191   1.082       .  S
C180        H192   1.082       .  S
C181        C425   1.429   1_554  A
C182        C691   1.428       .  A
C182        C230   1.533       .  S
C183        C328   1.482       .  S
C183        C432   1.427       .  A
C184        C687   1.426       .  A
C184        C233   1.523       .  S
N195        C200   1.365       .  A
N195        C199   1.354       .  A
N195        H227   1.037       .  S
N196        C203   1.355       .  A
N196        C204   1.363       .  A
N197        C202   1.355       .  A
N197        C201   1.368       .  A
N197        H228   1.037       .  S
N198        C205   1.362       .  A
N198        C206   1.353       .  A
C199        C207   1.391       .  A
C199        C215   1.427       .  A
C200        C216   1.424       .  A
C200        C208   1.383       .  A
C201        C209   1.385       .  A
C201        C738   1.432   1_545  A
C202        C217   1.432       .  A
C202        C210   1.390       .  A
C203        C215   1.426       .  A
C203        C211   1.389       .  A
C204        C218   1.428       .  A
C204        C212   1.386       .  A
C205        C213   1.381       .  A
C205        C736   1.420   1_545  A
C206        C214   1.392       .  A
C206        C217   1.428       .  A
C207        C208   1.378       .  A
C207        H219   1.082       .  S
C208        H220   1.081       .  S
C209        C210   1.377       .  A
C209        H221   1.078       .  S
C210        H222   1.082       .  S
C211        C212   1.375       .  A
C211        H223   1.082       .  S
C212        H224   1.082       .  S
C213        C214   1.374       .  A
C213        H225   1.082       .  S
C214        H226   1.082       .  S
C216        C725   1.422       .  A
C216        C229   1.525       .  S
C218        C721   1.432       .  A
C218        C234   1.530       .  S
C229        C230   1.363       .  D
C229        H751   1.084       .  S
C230        H232   1.086       .  S
H231        C749   1.084       .  S
C233        C234   1.362       .  D
C233        H235   1.084       .  S
C234        H756   1.086       .  S
H236        C754   1.086       .  S
C237       C1278   1.363       .  D
C237        H759   1.086       .  S
C238       C1277   1.364   1_455  D
C238        H240   1.086       .  S
H239        C757   1.086       .  S
C241       C1282   1.364       .  D
C241       H1803   1.086       .  S
C242       C1281   1.363   1_655  D
C242       H1284   1.086       .  S
H243       C1801   1.086       .  S
H244       C1282   1.086       .  S
C245        C246   1.183       .  T
C247        C248   1.184       .  T
C249        C250   1.208       .  T
C251        C252   1.208       .  T
C253        C514   1.212       .  T
C254        C513   1.212       .  T
C255        C516   1.207       .  T
C256        C515   1.208       .  T
C257       C1298   1.186       .  T
C258       C1297   1.186       .  T
C259       C1300   1.182       .  T
C260       C1299   1.184       .  T
O261        C277   1.268       .  A
O261       Zn267   1.961       .  S
C262        O278   1.274   1_554  A
C262       O1055   1.272       .  A
C262        C376   1.488       .  S
O263       Cd270   2.097       .  S
O264        C282   1.268       .  A
O264       Cd273   2.021       .  S
O265       Cd269   2.082       .  S
O266       C1317   1.270   1_455  A
O266       Cd269   2.022       .  S
Zn267       O278   2.029       .  S
Zn267       O280   2.024       .  S
Zn267       O272   1.940   1_556  S
O268        C279   1.270       .  A
O268       Cd273   2.060       .  S
Cd269       O271   2.072       .  S
Cd269      O1312   1.991   1_456  S
Cd270       O274   2.082       .  S
Cd270       O283   2.047       .  S
O272      Cd1309   1.996   1_554  S
O272      Cd1053   1.993       .  S
Cd273       O275   2.064       .  S
Cd273      O1052   1.989   1_455  S
O274       C1321   1.276       .  A
O275       C1042   1.272       .  A
C276        O280   1.272   1_554  A
C276        C514   1.445       .  S
C277       O1306   1.270       .  A
C277        C517   1.399       .  S
C279        C516   1.436       .  S
C281       O1314   1.274   1_455  A
C281       C1154   1.485       .  S
C282       O1323   1.270   1_455  A
C282        C519   1.399       .  S
O283       C1322   1.273       .  A
O284        C300   1.274       .  A
O284       Zn290   2.036       .  S
C285        O301   1.270   1_655  A
C285       O1338   1.268       .  A
C285        C518   1.396       .  S
O286        C299   1.272       .  A
O286       Cd293   2.070       .  S
O287        C305   1.274       .  A
O287       Cd296   2.074       .  S
O288        C302   1.272       .  A
O288       Cd292   2.071       .  S
O289       C1340   1.271       .  A
O289       Cd292   2.062       .  S
Zn290       O301   1.965       .  S
Zn290       O303   2.030       .  S
Zn290       O295   1.940       .  S
O291        C302   1.273       .  A
O291       Cd296   2.078       .  S
Cd292       O294   2.011       .  S
Cd292      O1335   1.990       .  S
Cd293       O297   2.022       .  S
Cd293       O306   2.079       .  S
Cd293       O295   1.992       .  S
O294        C304   1.268       .  A
O295      Cd1332   1.990   1_455  S
O295      Cd1336   1.991   1_455  S
Cd296       O298   2.020       .  S
Cd296      O1335   1.996       .  S
O297       C1344   1.269       .  A
O298       C1325   1.268       .  A
C299        O303   1.273       .  A
C299        C512   1.440       .  S
C300       O1329   1.272   1_455  A
C300        C407   1.489       .  S
C302        C510   1.440       .  S
C304       O1337   1.271       .  A
C304        C520   1.401       .  S
C305       O1346   1.276       .  A
C305       C1449   1.486       .  S
O306       C1345   1.274       .  A
O307        C323   1.274       .  A
O307       Zn313   2.024       .  S
C308        O324   1.270       .  A
C308        O321   1.269       .  A
C308        C507   1.397       .  S
O309       Cd316   2.080       .  S
O310       Cd319   2.069       .  S
O311        C325   1.272       .  A
O311       Cd315   2.078       .  S
O312       Cd315   2.060       .  S
Zn313       O324   1.966       .  S
Zn313       O326   2.032       .  S
Zn313       O318   1.937       .  S
O314       Cd319   2.071       .  S
Cd315       O317   2.025       .  S
Cd316       O320   2.022       .  S
Cd316       O329   2.080       .  S
O317        C327   1.270       .  A
O318       Cd319   1.991       .  S
Cd319       O321   2.017       .  S
O320        C327   1.268       .  A
C322        O326   1.272       .  A
C322        C513   1.445       .  S
C323        C441   1.489       .  S
C325        C515   1.439       .  S
C327        C505   1.399       .  S
C328        O329   1.275       .  A
O330        C346   1.274       .  A
O330       Zn336   2.025       .  S
C331        O347   1.268       .  A
C331        O344   1.271       .  A
C331        C506   1.399       .  S
O332        C345   1.270       .  A
O332       Cd339   2.069       .  S
O333        C351   1.273       .  A
O333       Cd342   2.065       .  S
O334        C348   1.272       .  A
O334       Cd338   2.073       .  S
O335        C346   1.273       .  A
O335       Cd338   2.064       .  S
Zn336       O347   1.958       .  S
Zn336       O349   2.030       .  S
Zn336       O341   1.940       .  S
O337        C348   1.272       .  A
O337       Cd342   2.078       .  S
Cd338       O340   2.018       .  S
Cd338       O341   1.988       .  S
Cd339       O343   2.020       .  S
Cd339       O352   2.066       .  S
Cd339       O341   1.992       .  S
O340        C350   1.268       .  A
O341       Cd342   1.989       .  S
Cd342       O344   2.027       .  S
O343        C350   1.269       .  A
C345        O349   1.272       .  A
C345        C509   1.440       .  S
C346        C475   1.483       .  S
C348        C511   1.440       .  S
C350        C508   1.397       .  S
C351        O352   1.272       .  A
C351        C477   1.486       .  S
N353        C358   1.355       .  A
N353        C357   1.368       .  A
N353        H385   1.040       .  S
N354        C361   1.363       .  A
N354        C362   1.355       .  A
N355        C360   1.365       .  A
N355        C359   1.354       .  A
N355        H386   1.038       .  S
N356        C363   1.354       .  A
N356        C364   1.364       .  A
C357        C365   1.383       .  A
C357        C373   1.430       .  A
C358        C374   1.429   1_556  A
C358        C366   1.390       .  A
C359        C367   1.390       .  A
C360        C895   1.427       .  A
C360        C368   1.385       .  A
C361        C893   1.425       .  A
C361        C369   1.384       .  A
C362        C376   1.425   1_556  A
C362        C370   1.388       .  A
C363        C371   1.390       .  A
C364        C372   1.382       .  A
C364        C375   1.426       .  A
C365        C366   1.379       .  A
C365        H377   1.080       .  S
C366        H378   1.082       .  S
C367        C368   1.376       .  A
C367        H379   1.082       .  S
C368        H380   1.081       .  S
C369        C370   1.371       .  A
C369        H381   1.080       .  S
C370        H382   1.082       .  S
C371        C372   1.375       .  A
C371        H383   1.082       .  S
C372        H384   1.079       .  S
C373        C881   1.422       .  A
C373        C497   1.531       .  S
C374       C1061   1.490       .  S
C375        C880   1.428       .  A
C375        C501   1.534       .  S
N387        C392   1.366       .  A
N387        C391   1.353       .  A
N387        H419   1.038       .  S
N388        C395   1.356       .  A
N388        C396   1.364       .  A
N389        C394   1.355   1_455  A
N389        C393   1.366   1_455  A
N389        H420   1.040       .  S
N390        C397   1.362       .  A
N390        C398   1.353       .  A
C391        C399   1.389   1_455  A
C391        C407   1.427       .  A
C392        C408   1.429       .  A
C392        C400   1.385   1_455  A
C393        C401   1.384       .  A
C393        C930   1.428   1_545  A
C394        C409   1.427   1_655  A
C394        C402   1.390       .  A
C395        C407   1.429       .  A
C395        C403   1.390       .  A
C396        C410   1.425       .  A
C396        C404   1.383       .  A
C397        C405   1.384       .  A
C397        C928   1.424       .  A
C398        C406   1.389       .  A
C398        C409   1.424       .  A
C399        C400   1.378       .  A
C399        H411   1.082       .  S
C400        H412   1.078       .  S
C401        C402   1.380       .  A
C401        H413   1.080       .  S
C402        H414   1.082       .  S
C403        C404   1.372       .  A
C403        H415   1.082       .  S
C404        H416   1.080       .  S
C405        C406   1.374       .  A
C405        H417   1.080       .  S
C406        H418   1.082       .  S
C408        C917   1.425       .  A
C408        C498   1.527       .  S
C409       C1345   1.484       .  S
C410        C913   1.427   1_455  A
C410        C502   1.531   1_455  S
N421        C426   1.364       .  A
N421        C425   1.355       .  A
N421        H453   1.036       .  S
N422        C429   1.354       .  A
N422        C430   1.363       .  A
N423        C428   1.354       .  A
N423        C427   1.365       .  A
N423        H454   1.038       .  S
N424        C431   1.362       .  A
N424        C432   1.353       .  A
C425        C433   1.392       .  A
C426        C442   1.421       .  A
C426        C434   1.382       .  A
C427        C435   1.383       .  A
C427        C964   1.424       .  A
C428        C443   1.426       .  A
C428        C436   1.391       .  A
C429        C441   1.430       .  A
C429        C437   1.392       .  A
C430        C444   1.423       .  A
C430        C438   1.382       .  A
C431        C439   1.383       .  A
C431        C962   1.422   1_545  A
C432        C440   1.391       .  A
C433        C434   1.375       .  A
C433        H445   1.082       .  S
C434        H446   1.081       .  S
C435        C436   1.377       .  A
C435        H447   1.081       .  S
C436        H448   1.082       .  S
C437        C438   1.375       .  A
C437        H449   1.082       .  S
C438        H450   1.082       .  S
C439        C440   1.378       .  A
C439        H451   1.082       .  S
C440        H452   1.082       .  S
C442        C951   1.424       .  A
C442        C490   1.522       .  S
C444        C947   1.424       .  A
C444        C493   1.523       .  S
N455        C460   1.366       .  A
N455        C459   1.353       .  A
N455        H487   1.038       .  S
N456        C463   1.354       .  A
N456        C464   1.363       .  A
N457        C462   1.354       .  A
N457        C461   1.367       .  A
N457        H488   1.035       .  S
N458        C465   1.363       .  A
N458        C466   1.354       .  A
C459        C467   1.390       .  A
C459        C475   1.427       .  A
C460        C476   1.429       .  A
C460        C468   1.385       .  A
C461        C469   1.386       .  A
C461        C998   1.433   1_545  A
C462        C477   1.430       .  A
C462        C470   1.389       .  A
C463        C475   1.427       .  A
C463        C471   1.390       .  A
C464        C478   1.426       .  A
C464        C472   1.384       .  A
C465        C473   1.384       .  A
C465        C996   1.424       .  A
C466        C474   1.391       .  A
C466        C477   1.428       .  A
C467        C468   1.379       .  A
C467        H479   1.082       .  S
C468        H480   1.079       .  S
C469        C470   1.376       .  A
C469        H481   1.077       .  S
C470        H482   1.082       .  S
C471        C472   1.374       .  A
C471        H483   1.082       .  S
C472        H484   1.082       .  S
C473        C474   1.370       .  A
C473        H485   1.082       .  S
C474        H486   1.082       .  S
C476        C985   1.423       .  A
C476        C489   1.527       .  S
C478        C981   1.429       .  A
C478        C494   1.528       .  S
C489        C490   1.359       .  D
C489       H1011   1.086       .  S
C490        H492   1.085       .  S
H491       C1009   1.086       .  S
C493        C494   1.360       .  D
C493        H495   1.085       .  S
C494       H1016   1.086       .  S
H496       C1014   1.086       .  S
C497       C1538   1.361       .  D
C497       H1019   1.086       .  S
C498       C1537   1.363   1_455  D
C498        H500   1.086       .  S
H499       C1017   1.086       .  S
C501       C1542   1.364       .  D
C501       H2063   1.086       .  S
C502       C1541   1.364   1_655  D
C502       H1544   1.085       .  S
H503       C2061   1.086       .  S
H504       C1542   1.086       .  S
C505        C506   1.184       .  T
C507        C508   1.183       .  T
C509        C510   1.209       .  T
C511        C512   1.209       .  T
C517       C1558   1.185       .  T
C518       C1557   1.183       .  T
C519       C1560   1.185       .  T
C520       C1559   1.186       .  T
O521        C537   1.267       .  A
O521       Zn527   1.957       .  S
C522        O538   1.272       .  A
C522       O1835   1.272       .  A
C522        C636   1.483       .  S
O523        C796   1.275       .  A
O523       Cd530   2.097       .  S
O524        C542   1.267       .  A
O524       Cd533   2.017       .  S
O525        C799   1.275       .  A
O525       Cd529   2.096       .  S
O526       C1577   1.273   1_455  A
O526       Cd529   2.042       .  S
Zn527       O538   2.019       .  S
Zn527       O540   2.025       .  S
Zn527       O532   1.942       .  S
O528        C539   1.270   1_554  A
O528       Cd533   2.067       .  S
Cd529       O531   2.085       .  S
Cd529      O1572   1.999   1_455  S
Cd530       O534   2.081       .  S
Cd530       O543   2.046       .  S
Cd530       O792   1.999       .  S
O531        C801   1.276   1_455  A
O532      Cd1569   1.999       .  S
O532       Cd790   1.999       .  S
O532      Cd1833   1.997       .  S
Cd533       O535   2.051       .  S
Cd533      O1832   1.993   1_455  S
O534       C1581   1.277       .  A
O535       C1822   1.271   1_454  A
C536        O783   1.275       .  A
C536        O540   1.272       .  A
C536        C774   1.449       .  S
C537       O1566   1.272       .  A
C537        C777   1.402       .  S
C539        O785   1.274       .  A
C539        C776   1.444       .  S
C541        O791   1.274   1_554  A
C541       O1574   1.275   1_455  A
C541       C1934   1.487       .  S
C542       O1583   1.272   1_455  A
C542        C779   1.402       .  S
O543       C1582   1.273       .  A
O544        C560   1.273   1_455  A
O544       Zn550   2.022       .  S
C545        O561   1.269   1_655  A
C545       O1598   1.271       .  A
C545        C778   1.405       .  S
O546        C559   1.272       .  A
O546       Cd553   2.072       .  S
O547        C565   1.275       .  A
O547       Cd556   2.077       .  S
O548        C562   1.273       .  A
O548       Cd552   2.081       .  S
O549       C1600   1.272       .  A
O549       Cd552   2.061       .  S
Zn550       O561   1.964       .  S
Zn550       O563   2.035       .  S
Zn550       O555   1.940   1_455  S
O551        C562   1.274       .  A
O551       Cd556   2.089       .  S
Cd552       O554   2.022       .  S
Cd552      O1595   1.992       .  S
Cd553       O557   2.024       .  S
Cd553       O566   2.066       .  S
Cd553       O555   1.996   1_455  S
O554        C564   1.269       .  A
O555      Cd1592   1.993       .  S
O555      Cd1596   1.999       .  S
Cd556       O558   2.032       .  S
Cd556      O1595   1.997       .  S
O557       C1604   1.268       .  A
O558       C1585   1.270       .  A
C559        O563   1.273       .  A
C559        C772   1.442       .  S
C560       O1589   1.274       .  A
C560        C667   1.492   1_655  S
C562        C770   1.446       .  S
C564       O1597   1.271       .  A
C564        C780   1.405       .  S
C565       O1606   1.275       .  A
C565       C1709   1.485       .  S
O566       C1605   1.273   1_455  A
O567        C583   1.273       .  A
O567       Zn573   2.019       .  S
C568        O584   1.271       .  A
C568        O581   1.268       .  A
C568        C767   1.401       .  S
O569        C842   1.273       .  A
O569       Cd576   2.080       .  S
O570        C848   1.274   1_554  A
O570       Cd579   2.068       .  S
O571        C585   1.272       .  A
O571       Cd575   2.082       .  S
O572        C843   1.273       .  A
O572       Cd575   2.061       .  S
Zn573       O584   1.975       .  S
Zn573       O586   2.041       .  S
Zn573       O578   1.945       .  S
O574        C845   1.272   1_554  A
O574       Cd579   2.078       .  S
Cd575       O577   2.029       .  S
Cd575       O838   1.992       .  S
Cd576       O580   2.025       .  S
Cd576       O589   2.078       .  S
Cd576       O838   1.998       .  S
O577        C587   1.271       .  A
O578       Cd835   1.993   1_554  S
O578       Cd836   2.000   1_554  S
O578       Cd579   1.992       .  S
Cd579       O581   2.020       .  S
O580        C587   1.269       .  A
C582        O829   1.274   1_554  A
C582        O586   1.274       .  A
C582        C773   1.448       .  S
C583        O832   1.272   1_554  A
C583        C701   1.485       .  S
C585        O834   1.272       .  A
C585        C775   1.443       .  S
C587        C765   1.402       .  S
C588        O830   1.273       .  A
C588        O589   1.275       .  A
C588        C963   1.484       .  S
O590        C606   1.273       .  A
O590       Zn596   2.019       .  S
C591        O607   1.268       .  A
C591        O604   1.271       .  A
C591        C766   1.402       .  S
O592        C605   1.273       .  A
O592       Cd599   2.088       .  S
O593        C611   1.274       .  A
O593       Cd602   2.064       .  S
O594        C608   1.272       .  A
O594       Cd598   2.074       .  S
O595        C606   1.272       .  A
O595       Cd598   2.064       .  S
Zn596       O607   1.962       .  S
Zn596       O609   2.030       .  S
Zn596       O601   1.940       .  S
O597        C608   1.273       .  A
O597       Cd602   2.085       .  S
Cd598       O600   2.018       .  S
Cd598       O601   1.995       .  S
Cd599       O603   2.033       .  S
Cd599       O612   2.072       .  S
Cd599       O601   1.995       .  S
O600        C610   1.268       .  A
O601       Cd602   1.993       .  S
Cd602       O604   2.032       .  S
O603        C610   1.271       .  A
C605        O609   1.272       .  A
C605        C769   1.446       .  S
C606        C735   1.480       .  S
C608        C771   1.443       .  S
C610        C768   1.401       .  S
C611        O612   1.275       .  A
C611        C737   1.488       .  S
N613        C618   1.355       .  A
N613        C617   1.367       .  A
N613        H645   1.040       .  S
N614        C621   1.363       .  A
N614        C622   1.355       .  A
N615        C620   1.365       .  A
N615        C619   1.354       .  A
N615        H646   1.037       .  S
N616        C623   1.354       .  A
N616        C624   1.364       .  A
C617        C625   1.384       .  A
C617        C633   1.430   1_565  A
C618        C634   1.429       .  A
C618        C626   1.390       .  A
C619        C627   1.389       .  A
C619        C896   1.425       .  A
C620        C628   1.386       .  A
C621        C629   1.384       .  A
C622        C636   1.425       .  A
C622        C630   1.389       .  A
C623        C631   1.390       .  A
C623        C894   1.427       .  A
C624        C632   1.382       .  A
C624        C635   1.425   1_565  A
C625        C626   1.380       .  A
C625        H637   1.080       .  S
C626        H638   1.082       .  S
C627        C628   1.376       .  A
C627        H639   1.082       .  S
C628        H640   1.080       .  S
C629        C630   1.372       .  A
C629        H641   1.080       .  S
C630        H642   1.082       .  S
C631        C632   1.374       .  A
C631        H643   1.082       .  S
C632        H644   1.080       .  S
C633        C757   1.529       .  S
C634       C1841   1.492       .  S
C634        C883   1.427       .  A
C635        C761   1.532       .  S
C636        C879   1.426       .  A
N647        C652   1.365       .  A
N647        C651   1.356   1_455  A
N647        H679   1.039       .  S
N648        C655   1.356   1_655  A
N648        C656   1.362   1_655  A
N649        C654   1.353   1_455  A
N649        C653   1.367   1_455  A
N649        H680   1.040       .  S
N650        C657   1.363       .  A
N650        C658   1.353       .  A
C651        C659   1.390       .  A
C651        C667   1.428   1_655  A
C652        C668   1.428       .  A
C652        C660   1.385   1_455  A
C653        C661   1.384       .  A
C654        C669   1.427       .  A
C654        C662   1.390       .  A
C655        C667   1.426       .  A
C655        C663   1.389       .  A
C656        C670   1.425   1_455  A
C656        C664   1.384       .  A
C657        C665   1.382       .  A
C658        C666   1.389       .  A
C658        C669   1.424   1_455  A
C659        C660   1.376       .  A
C659        H671   1.082       .  S
C660        H672   1.081       .  S
C661        C662   1.381       .  A
C661        H673   1.081       .  S
C662        H674   1.082       .  S
C663        C664   1.370       .  A
C663        H675   1.082       .  S
C664        H676   1.079       .  S
C665        C666   1.375       .  A
C665        H677   1.080       .  S
C666        H678   1.082       .  S
C668        C758   1.533       .  S
C669       C1605   1.481       .  S
C670        C762   1.531       .  S
N681        C686   1.367       .  A
N681        C685   1.354       .  A
N681        H713   1.038       .  S
N682        C689   1.353       .  A
N682        C690   1.362       .  A
N683        C688   1.355       .  A
N683        C687   1.365       .  A
N683        H714   1.035       .  S
N684        C691   1.363       .  A
N684        C692   1.355       .  A
C685        C693   1.390       .  A
C685        C961   1.430       .  A
C686        C702   1.431   1_565  A
C686        C694   1.385       .  A
C687        C695   1.383       .  A
C688        C703   1.429   1_554  A
C688        C696   1.391       .  A
C689        C701   1.426       .  A
C689        C697   1.391       .  A
C690        C704   1.422   1_565  A
C690        C698   1.382       .  A
C691        C699   1.385       .  A
C692        C700   1.389       .  A
C692        C963   1.428       .  A
C693        C694   1.376       .  A
C693        H705   1.082       .  S
C694        H706   1.078       .  S
C695        C696   1.377       .  A
C695        H707   1.082       .  S
C696        H708   1.082       .  S
C697        C698   1.375       .  A
C697        H709   1.082       .  S
C698        H710   1.082       .  S
C699        C700   1.375       .  A
C699        H711   1.082       .  S
C700        H712   1.082       .  S
C701        C945   1.428   1_554  A
C702        C750   1.529       .  S
C703        C848   1.486       .  S
C703        C952   1.428       .  A
C704        C753   1.523       .  S
N715        C720   1.363       .  A
N715        C719   1.352       .  A
N715        H747   1.038       .  S
N716        C723   1.354       .  A
N716        C724   1.362       .  A
N717        C722   1.354       .  A
N717        C721   1.368       .  A
N717        H748   1.037       .  S
N718        C725   1.364       .  A
N718        C726   1.354       .  A
C719        C727   1.391       .  A
C719        C735   1.424       .  A
C720        C736   1.422       .  A
C720        C728   1.383       .  A
C721        C729   1.386       .  A
C722        C737   1.431       .  A
C722        C730   1.390       .  A
C723        C735   1.425       .  A
C723        C731   1.389       .  A
C724        C738   1.426       .  A
C724        C732   1.385       .  A
C725        C733   1.381       .  A
C726        C734   1.392       .  A
C726        C737   1.430       .  A
C727        C728   1.378       .  A
C727        H739   1.082       .  S
C728        H740   1.082       .  S
C729        C730   1.377       .  A
C729        H741   1.078       .  S
C730        H742   1.082       .  S
C731        C732   1.373       .  A
C731        H743   1.082       .  S
C732        H744   1.082       .  S
C733        C734   1.374       .  A
C733        H745   1.082       .  S
C734        H746   1.082       .  S
C736        C749   1.521       .  S
C738        C754   1.529       .  S
C749        C750   1.361   1_565  D
C750        H752   1.086       .  S
C753        C754   1.361   1_545  D
C753        H755   1.085       .  S
C757       C1798   1.362   1_545  D
C758       C1797   1.365   1_465  D
C758        H760   1.086       .  S
C761       C1802   1.365   1_545  D
C761       H1283   1.086       .  S
C762       C1801   1.362   1_665  D
C762       H1804   1.086       .  S
H763       C1281   1.086       .  S
H764       C1802   1.086       .  S
C765        C766   1.186       .  T
C767        C768   1.186       .  T
C769        C770   1.213       .  T
C771        C772   1.210       .  T
C773       C1034   1.213       .  T
C774       C1033   1.214       .  T
C775       C1036   1.210       .  T
C776       C1035   1.211       .  T
C777       C1818   1.186       .  T
C778       C1817   1.188       .  T
C779       C1820   1.186       .  T
C780       C1819   1.188       .  T
O781        C797   1.269       .  A
O781       Zn787   1.976       .  S
C782        O798   1.273   1_554  A
C782       O1575   1.272       .  A
C782        C896   1.481       .  S
O783       Cd790   2.098       .  S
O784        C802   1.268       .  A
O784       Cd793   2.018       .  S
O785       Cd789   2.093       .  S
O786       C1837   1.271   1_455  A
O786       Cd789   2.034       .  S
Zn787       O798   2.018       .  S
Zn787       O800   2.023       .  S
Zn787       O792   1.941   1_556  S
O788        C799   1.270       .  A
O788       Cd793   2.062       .  S
Cd789       O791   2.064       .  S
Cd789      O1832   1.995   1_456  S
Cd790       O794   2.085       .  S
Cd790       O803   2.046       .  S
O792      Cd1829   1.996   1_554  S
O792      Cd1573   1.995       .  S
Cd793       O795   2.063       .  S
Cd793      O1572   1.993   1_455  S
O794       C1841   1.277       .  A
O795       C1562   1.272       .  A
C796        O800   1.271   1_554  A
C796       C1034   1.447       .  S
C797       O1826   1.270       .  A
C797       C1037   1.404       .  S
C799       C1036   1.442       .  S
C801       O1834   1.275       .  A
C801       C1674   1.492   1_655  S
C802       O1843   1.271   1_455  A
C802       C1039   1.401       .  S
O803       C1842   1.274       .  A
O804        C820   1.273   1_455  A
O804       Zn810   2.024       .  S
C805        O821   1.272   1_655  A
C805       O1858   1.270       .  A
C805       C1038   1.408       .  S
O806        C819   1.271       .  A
O806       Cd813   2.070       .  S
O807        C825   1.275       .  A
O807       Cd816   2.077       .  S
O808        C822   1.272       .  A
O808       Cd812   2.075       .  S
O809       C1860   1.271       .  A
O809       Cd812   2.060       .  S
Zn810       O821   1.982       .  S
Zn810       O823   2.040       .  S
Zn810       O815   1.942   1_455  S
O811        C822   1.274       .  A
O811       Cd816   2.085       .  S
Cd812       O814   2.014       .  S
Cd812      O1855   1.994       .  S
Cd813       O817   2.027       .  S
Cd813       O826   2.075       .  S
Cd813       O815   1.995   1_455  S
O814        C824   1.268       .  A
O815      Cd1852   1.994       .  S
O815      Cd1856   1.993       .  S
Cd816       O818   2.027       .  S
Cd816      O1855   1.996       .  S
O817       C1864   1.269       .  A
O818       C1845   1.269       .  A
C819        O823   1.274       .  A
C819       C1032   1.443       .  S
C820       O1849   1.273       .  A
C820        C927   1.489       .  S
C822       C1030   1.443       .  S
C824       O1857   1.271       .  A
C824       C1040   1.402       .  S
C825       O1866   1.276       .  A
C825       C1969   1.486       .  S
O826       C1865   1.274       .  A
O827        C843   1.274       .  A
O827       Zn833   2.028       .  S
C828        O844   1.271       .  A
C828        O841   1.269       .  A
C828       C1027   1.401       .  S
O829       Cd836   2.084       .  S
O830       Cd839   2.068       .  S
O831        C845   1.272       .  A
O831       Cd835   2.082       .  S
O832       Cd835   2.058       .  S
Zn833       O844   1.976       .  S
Zn833       O846   2.049       .  S
Zn833       O838   1.945       .  S
O834       Cd839   2.075       .  S
Cd835       O837   2.024       .  S
Cd836       O840   2.030       .  S
Cd836       O849   2.086       .  S
O837        C847   1.270       .  A
O838       Cd839   1.994       .  S
Cd839       O841   2.021       .  S
O840        C847   1.270       .  A
C842        O846   1.275       .  A
C842       C1033   1.449       .  S
C843        C961   1.488       .  S
C845       C1035   1.444       .  S
C847       C1025   1.402       .  S
C848        O849   1.276       .  A
O850        C866   1.275       .  A
O850       Zn856   2.035       .  S
C851        O867   1.268       .  A
C851        O864   1.271       .  A
C851       C1026   1.402       .  S
O852        C865   1.273       .  A
O852       Cd859   2.081       .  S
O853        C871   1.274       .  A
O853       Cd862   2.071       .  S
O854        C868   1.272       .  A
O854       Cd858   2.071       .  S
O855        C866   1.272       .  A
O855       Cd858   2.064       .  S
Zn856       O867   1.964       .  S
Zn856       O869   2.030       .  S
Zn856       O861   1.945       .  S
O857        C868   1.274       .  A
O857       Cd862   2.088       .  S
Cd858       O860   2.022       .  S
Cd858       O861   1.991       .  S
Cd859       O863   2.029       .  S
Cd859       O872   2.071       .  S
Cd859       O861   1.997       .  S
O860        C870   1.268       .  A
O861       Cd862   1.994       .  S
Cd862       O864   2.032       .  S
O863        C870   1.271       .  A
C865        O869   1.272       .  A
C865       C1029   1.443       .  S
C866        C995   1.485       .  S
C868       C1031   1.443       .  S
C870       C1028   1.401       .  S
C871        O872   1.273       .  A
C871        C997   1.486       .  S
N873        C878   1.355       .  A
N873        C877   1.368       .  A
N873        H905   1.040       .  S
N874        C881   1.361       .  A
N874        C882   1.354       .  A
N875        C880   1.366       .  A
N875        C879   1.354       .  A
N875        H906   1.038       .  S
N876        C883   1.355       .  A
N876        C884   1.364       .  A
C877        C885   1.384       .  A
C877        C893   1.431   1_565  A
C878        C894   1.430   1_556  A
C878        C886   1.390       .  A
C879        C887   1.390       .  A
C880        C888   1.385       .  A
C881        C889   1.384       .  A
C882        C896   1.422   1_556  A
C882        C890   1.389       .  A
C883        C891   1.389       .  A
C884        C892   1.382       .  A
C884        C895   1.426   1_565  A
C885        C886   1.380       .  A
C885        H897   1.080       .  S
C886        H898   1.082       .  S
C887        C888   1.376       .  A
C887        H899   1.082       .  S
C888        H900   1.081       .  S
C889        C890   1.370       .  A
C889        H901   1.079       .  S
C890        H902   1.082       .  S
C891        C892   1.374       .  A
C891        H903   1.082       .  S
C892        H904   1.080       .  S
C893       C1017   1.535       .  S
C894       C1581   1.488       .  S
C895       C1021   1.532       .  S
N907        C912   1.368       .  A
N907        C911   1.353   1_455  A
N907        H939   1.037       .  S
N908        C915   1.356   1_655  A
N908        C916   1.364   1_655  A
N909        C914   1.355   1_455  A
N909        C913   1.365   1_455  A
N909        H940   1.041       .  S
N910        C917   1.362       .  A
N910        C918   1.353       .  A
C911        C919   1.390       .  A
C911        C927   1.430       .  A
C912        C928   1.431   1_565  A
C912        C920   1.383   1_455  A
C913        C921   1.384       .  A
C914        C929   1.424   1_655  A
C914        C922   1.389       .  A
C915        C927   1.430   1_455  A
C915        C923   1.391       .  A
C916        C930   1.424   1_455  A
C916        C924   1.383       .  A
C917        C925   1.385       .  A
C918        C926   1.389       .  A
C918        C929   1.422       .  A
C919        C920   1.378       .  A
C919        H931   1.082       .  S
C920        H932   1.078       .  S
C921        C922   1.379       .  A
C921        H933   1.080       .  S
C922        H934   1.082       .  S
C923        C924   1.371       .  A
C923        H935   1.082       .  S
C924        H936   1.080       .  S
C925        C926   1.375       .  A
C925        H937   1.081       .  S
C926        H938   1.083       .  S
C928       C1018   1.530       .  S
C929       C1865   1.484       .  S
C930       C1022   1.533       .  S
N941        C946   1.364       .  A
N941        C945   1.354       .  A
N941        H973   1.038       .  S
N942        C949   1.353       .  A
N942        C950   1.362       .  A
N943        C948   1.353       .  A
N943        C947   1.364       .  A
N943        H974   1.038       .  S
N944        C951   1.362       .  A
N944        C952   1.355       .  A
C945        C953   1.392       .  A
C946        C962   1.421       .  A
C946        C954   1.382       .  A
C947        C955   1.384       .  A
C948        C963   1.427       .  A
C948        C956   1.392       .  A
C949        C961   1.427       .  A
C949        C957   1.391       .  A
C950        C964   1.421   1_565  A
C950        C958   1.382       .  A
C951        C959   1.383       .  A
C952        C960   1.391       .  A
C953        C954   1.376       .  A
C953        H965   1.082       .  S
C954        H966   1.082       .  S
C955        C956   1.377       .  A
C955        H967   1.082       .  S
C956        H968   1.082       .  S
C957        C958   1.377       .  A
C957        H969   1.082       .  S
C958        H970   1.082       .  S
C959        C960   1.377       .  A
C959        H971   1.082       .  S
C960        H972   1.082       .  S
C962       C1010   1.522       .  S
C964       C1013   1.524       .  S
N975        C980   1.366       .  A
N975        C979   1.353       .  A
N975       H1007   1.036       .  S
N976        C983   1.355       .  A
N976        C984   1.364       .  A
N977        C982   1.353       .  A
N977        C981   1.366       .  A
N977       H1008   1.038       .  S
N978        C985   1.362       .  A
N978        C986   1.354       .  A
C979        C987   1.390       .  A
C979        C995   1.429       .  A
C980        C996   1.430   1_565  A
C980        C988   1.385       .  A
C981        C989   1.386       .  A
C982        C997   1.427       .  A
C982        C990   1.389       .  A
C983        C995   1.430       .  A
C983        C991   1.390       .  A
C984        C998   1.430       .  A
C984        C992   1.385       .  A
C985        C993   1.384       .  A
C986        C994   1.390       .  A
C986        C997   1.426       .  A
C987        C988   1.379       .  A
C987        H999   1.082       .  S
C988       H1000   1.079       .  S
C989        C990   1.379       .  A
C989       H1001   1.078       .  S
C990       H1002   1.082       .  S
C991        C992   1.374       .  A
C991       H1003   1.082       .  S
C992       H1004   1.082       .  S
C993        C994   1.372       .  A
C993       H1005   1.082       .  S
C994       H1006   1.082       .  S
C996       C1009   1.527       .  S
C998       C1014   1.533       .  S
C1009      C1010   1.359   1_545  D
C1010      H1012   1.085       .  S
C1013      C1014   1.363   1_545  D
C1013      H1015   1.084       .  S
C1017      C2058   1.364   1_545  D
C1018      C2057   1.363   1_445  D
C1018      H1020   1.086       .  S
C1021      C2062   1.364   1_545  D
C1021      H1543   1.086       .  S
C1022      C2061   1.363   1_665  D
C1022      H2064   1.086       .  S
H1023      C1541   1.086       .  S
H1024      C2062   1.086       .  S
C1025      C1026   1.186       .  T
C1027      C1028   1.186       .  T
C1029      C1030   1.211       .  T
C1031      C1032   1.210       .  T
C1037      C2078   1.188       .  T
C1038      C2077   1.190       .  T
C1039      C2080   1.186       .  T
C1040      C2079   1.187       .  T
O1041      C1057   1.267       .  A
O1041     Zn1047   1.957       .  S
C1042      O1058   1.273   1_455  A
C1042      C1156   1.484       .  S
O1043      C1316   1.273       .  A
O1043     Cd1050   2.084       .  S
O1044      C1062   1.268       .  A
O1044     Cd1053   2.012       .  S
O1045      C1319   1.274       .  A
O1045     Cd1049   2.091       .  S
O1046     Cd1049   2.034       .  S
Zn1047     O1058   2.023       .  S
Zn1047     O1060   2.018       .  S
Zn1047     O1052   1.937       .  S
O1048      C1059   1.271   1_554  A
O1048     Cd1053   2.065       .  S
Cd1049     O1051   2.069       .  S
Cd1050     O1054   2.078       .  S
Cd1050     O1063   2.024       .  S
Cd1050     O1312   1.996       .  S
O1051      C1321   1.274       .  A
O1052     Cd1310   1.994       .  S
Cd1053     O1055   2.072       .  S
C1056      O1303   1.273       .  A
C1056      O1060   1.272       .  A
C1056      C1294   1.439       .  S
C1057      C1297   1.401       .  S
C1059      O1305   1.273       .  A
C1059      C1296   1.437       .  S
C1061      O1311   1.274   1_554  A
C1062      C1299   1.398       .  S
O1064      C1080   1.274       .  A
O1064     Zn1070   2.031       .  S
C1065      O1081   1.270       .  A
C1065      C1298   1.402       .  S
O1066      C1079   1.273       .  A
O1066     Cd1073   2.078       .  S
O1067      C1085   1.277   1_655  A
O1067     Cd1076   2.086       .  S
O1068      C1082   1.271       .  A
O1068     Cd1072   2.068       .  S
O1069     Cd1072   2.060       .  S
Zn1070     O1081   1.966       .  S
Zn1070     O1083   2.029       .  S
Zn1070     O1075   1.938       .  S
O1071      C1082   1.273       .  A
O1071     Cd1076   2.081       .  S
Cd1072     O1074   2.012       .  S
Cd1073     O1077   2.034       .  S
Cd1073     O1086   2.085       .  S
Cd1073     O1075   1.994       .  S
O1074      C1084   1.268   1_655  A
Cd1076     O1078   2.034       .  S
C1079      O1083   1.273       .  A
C1079      C1292   1.442       .  S
C1080      C1187   1.485       .  S
C1082      C1290   1.439       .  S
C1084      C1300   1.395       .  S
O1087      C1103   1.274   1_554  A
O1087     Zn1093   2.023       .  S
C1088      O1104   1.271       .  A
C1088      O1101   1.268       .  A
C1088      C1287   1.400       .  S
O1089      C1362   1.271       .  A
O1089     Cd1096   2.068       .  S
O1090      C1368   1.273   1_554  A
O1090     Cd1099   2.070       .  S
O1091      C1105   1.272       .  A
O1091     Cd1095   2.076       .  S
O1092      C1363   1.273       .  A
O1092     Cd1095   2.063       .  S
Zn1093     O1104   1.974       .  S
Zn1093     O1106   2.030       .  S
Zn1093     O1098   1.939   1_554  S
O1094      C1365   1.271   1_554  A
O1094     Cd1099   2.066       .  S
Cd1095     O1097   2.030       .  S
Cd1095     O1358   1.988       .  S
Cd1096     O1100   2.017       .  S
Cd1096     O1109   2.069       .  S
Cd1096     O1358   1.993       .  S
O1097      C1107   1.271       .  A
O1098     Cd1355   1.989       .  S
O1098     Cd1356   1.995       .  S
O1098     Cd1099   1.988   1_556  S
Cd1099     O1101   2.014       .  S
O1100      C1107   1.268       .  A
C1102      O1349   1.272   1_554  A
C1102      O1106   1.272       .  A
C1102      C1293   1.441       .  S
C1103      O1352   1.272       .  A
C1103      C1221   1.488       .  S
C1105      O1354   1.272       .  A
C1105      C1295   1.440       .  S
C1107      C1285   1.400       .  S
C1108      O1350   1.274       .  A
C1108      O1109   1.273       .  A
C1108      C1483   1.483       .  S
O1110      C1126   1.274       .  A
O1110     Zn1116   2.024       .  S
C1111      O1127   1.268       .  A
C1111      O1124   1.270       .  A
C1111      C1286   1.400       .  S
O1112      C1125   1.272       .  A
O1112     Cd1119   2.076       .  S
O1113      C1131   1.272       .  A
O1113     Cd1122   2.058       .  S
O1114      C1128   1.273       .  A
O1114     Cd1118   2.079       .  S
O1115      C1126   1.273       .  A
O1115     Cd1118   2.069       .  S
Zn1116     O1127   1.963       .  S
Zn1116     O1129   2.020       .  S
Zn1116     O1121   1.938       .  S
O1117      C1128   1.272       .  A
O1117     Cd1122   2.077       .  S
Cd1118     O1120   2.018       .  S
Cd1118     O1121   1.993       .  S
Cd1119     O1123   2.032       .  S
Cd1119     O1132   2.077       .  S
Cd1119     O1121   1.996       .  S
O1120      C1130   1.268       .  A
O1121     Cd1122   1.992       .  S
Cd1122     O1124   2.025       .  S
O1123      C1130   1.271       .  A
C1125      O1129   1.271       .  A
C1125      C1289   1.439       .  S
C1126      C1255   1.485       .  S
C1128      C1291   1.442       .  S
C1130      C1288   1.400       .  S
C1131      O1132   1.275       .  A
C1131      C1257   1.486       .  S
N1133      C1138   1.354   1_455  A
N1133      C1137   1.367   1_455  A
N1133      H1165   1.040       .  S
N1134      C1141   1.362       .  A
N1134      C1142   1.355       .  A
N1135      C1140   1.366       .  A
N1135      C1139   1.355   1_455  A
N1135      H1166   1.037       .  S
N1136      C1143   1.354   1_655  A
N1136      C1144   1.362   1_655  A
C1137      C1145   1.383       .  A
C1137      C1153   1.428   1_655  A
C1138      C1154   1.427   1_655  A
C1138      C1146   1.390       .  A
C1139      C1147   1.391       .  A
C1139      C1416   1.429   1_554  A
C1140      C1675   1.427       .  A
C1140      C1148   1.384   1_455  A
C1141      C1673   1.425       .  A
C1141      C1149   1.385       .  A
C1142      C1156   1.425       .  A
C1142      C1150   1.389       .  A
C1143      C1151   1.388       .  A
C1143      C1414   1.424       .  A
C1144      C1152   1.383       .  A
C1144      C1155   1.426       .  A
C1145      C1146   1.377       .  A
C1145      H1157   1.080       .  S
C1146      H1158   1.082       .  S
C1147      C1148   1.374       .  A
C1147      H1159   1.082       .  S
C1148      H1160   1.081       .  S
C1149      C1150   1.373       .  A
C1149      H1161   1.080       .  S
C1150      H1162   1.082       .  S
C1151      C1152   1.377       .  A
C1151      H1163   1.082       .  S
C1152      H1164   1.079       .  S
C1153      C1661   1.425       .  A
C1153      C1277   1.532   1_455  S
C1154      C1403   1.427       .  A
C1155      C1660   1.428   1_455  A
C1155      C1281   1.532       .  S
C1156      C1399   1.424   1_455  A
N1167      C1172   1.365       .  A
N1167      C1171   1.354       .  A
N1167      H1199   1.038       .  S
N1168      C1175   1.355       .  A
N1168      C1176   1.363       .  A
N1169      C1174   1.355       .  A
N1169      C1173   1.366       .  A
N1169      H1200   1.040       .  S
N1170      C1177   1.364       .  A
N1170      C1178   1.355       .  A
C1171      C1179   1.390       .  A
C1171      C1187   1.424       .  A
C1172      C1188   1.426       .  A
C1172      C1180   1.385       .  A
C1173      C1181   1.384       .  A
C1173      C1710   1.428   1_545  A
C1174      C1189   1.427       .  A
C1174      C1182   1.389       .  A
C1175      C1187   1.426       .  A
C1175      C1183   1.389       .  A
C1176      C1190   1.425       .  A
C1176      C1184   1.384       .  A
C1177      C1185   1.382       .  A
C1177      C1708   1.427   1_545  A
C1178      C1186   1.389       .  A
C1178      C1189   1.427       .  A
C1179      C1180   1.375       .  A
C1179      H1191   1.082       .  S
C1180      H1192   1.081       .  S
C1181      C1182   1.378       .  A
C1181      H1193   1.080       .  S
C1182      H1194   1.082       .  S
C1183      C1184   1.373       .  A
C1183      H1195   1.082       .  S
C1184      H1196   1.081       .  S
C1185      C1186   1.375       .  A
C1185      H1197   1.079       .  S
C1186      H1198   1.082       .  S
C1188      C1697   1.426       .  A
C1188      C1278   1.531       .  S
C1190      C1693   1.429       .  A
C1190      C1282   1.533       .  S
N1201      C1206   1.368       .  A
N1201      C1205   1.354       .  A
N1201      H1233   1.038       .  S
N1202      C1209   1.353       .  A
N1202      C1210   1.363       .  A
N1203      C1208   1.355       .  A
N1203      C1207   1.364       .  A
N1203      H1234   1.037       .  S
N1204      C1211   1.363       .  A
N1204      C1212   1.355       .  A
C1205      C1213   1.390       .  A
C1205      C1481   1.431       .  A
C1206      C1222   1.431       .  A
C1206      C1214   1.385       .  A
C1207      C1215   1.384       .  A
C1207      C1744   1.424       .  A
C1208      C1223   1.427   1_554  A
C1208      C1216   1.390       .  A
C1209      C1221   1.428   1_554  A
C1209      C1217   1.392       .  A
C1210      C1224   1.422       .  A
C1210      C1218   1.382       .  A
C1211      C1219   1.385       .  A
C1211      C1742   1.428       .  A
C1212      C1220   1.389       .  A
C1212      C1483   1.427       .  A
C1213      C1214   1.376       .  A
C1213      H1225   1.082       .  S
C1214      H1226   1.078       .  S
C1215      C1216   1.377       .  A
C1215      H1227   1.081       .  S
C1216      H1228   1.082       .  S
C1217      C1218   1.376       .  A
C1217      H1229   1.082       .  S
C1218      H1230   1.082       .  S
C1219      C1220   1.375       .  A
C1219      H1231   1.082       .  S
C1220      H1232   1.082       .  S
C1221      C1465   1.431       .  A
C1222      C1731   1.426       .  A
C1222      C1270   1.530       .  S
C1223      C1368   1.485       .  S
C1223      C1472   1.424       .  A
C1224      C1727   1.425       .  A
C1224      C1273   1.525       .  S
N1235      C1240   1.364       .  A
N1235      C1239   1.354       .  A
N1235      H1267   1.038       .  S
N1236      C1243   1.355       .  A
N1236      C1244   1.363       .  A
N1237      C1242   1.354       .  A
N1237      C1241   1.367       .  A
N1237      H1268   1.036       .  S
N1238      C1245   1.364       .  A
N1238      C1246   1.354       .  A
C1239      C1247   1.391       .  A
C1239      C1255   1.426       .  A
C1240      C1256   1.423       .  A
C1240      C1248   1.383       .  A
C1241      C1249   1.385       .  A
C1241      C1778   1.431   1_545  A
C1242      C1257   1.430       .  A
C1242      C1250   1.390       .  A
C1243      C1255   1.427       .  A
C1243      C1251   1.389       .  A
C1244      C1258   1.428       .  A
C1244      C1252   1.385       .  A
C1245      C1253   1.382       .  A
C1245      C1776   1.424   1_545  A
C1246      C1254   1.392       .  A
C1246      C1257   1.430       .  A
C1247      C1248   1.378       .  A
C1247      H1259   1.082       .  S
C1248      H1260   1.082       .  S
C1249      C1250   1.376       .  A
C1249      H1261   1.077       .  S
C1250      H1262   1.082       .  S
C1251      C1252   1.375       .  A
C1251      H1263   1.082       .  S
C1252      H1264   1.082       .  S
C1253      C1254   1.375       .  A
C1253      H1265   1.082       .  S
C1254      H1266   1.082       .  S
C1256      C1765   1.421       .  A
C1256      C1269   1.523       .  S
C1258      C1761   1.432       .  A
C1258      C1274   1.532       .  S
C1269      C1270   1.362       .  D
C1269      H1791   1.085       .  S
C1270      H1272   1.086       .  S
H1271      C1789   1.084       .  S
C1273      C1274   1.363       .  D
C1273      H1275   1.084       .  S
C1274      H1796   1.086       .  S
H1276      C1794   1.086       .  S
C1277      H1799   1.085       .  S
C1278      H1280   1.086       .  S
H1279      C1797   1.085       .  S
C1285      C1286   1.185       .  T
C1287      C1288   1.185       .  T
C1289      C1290   1.208       .  T
C1291      C1292   1.210       .  T
C1293      C1554   1.209       .  T
C1294      C1553   1.208       .  T
C1295      C1556   1.209       .  T
C1296      C1555   1.207       .  T
O1301      C1317   1.267       .  A
O1301     Zn1307   1.952       .  S
C1302      O1318   1.273   1_455  A
C1302      C1416   1.488   1_455  S
O1303     Cd1310   2.079       .  S
O1304      C1322   1.266       .  A
O1304     Cd1313   2.005       .  S
O1305     Cd1309   2.080       .  S
O1306     Cd1309   2.024       .  S
Zn1307     O1318   2.033       .  S
Zn1307     O1320   2.018       .  S
Zn1307     O1312   1.942   1_556  S
O1308      C1319   1.270       .  A
O1308     Cd1313   2.059       .  S
Cd1309     O1311   2.077       .  S
Cd1310     O1314   2.074       .  S
Cd1310     O1323   2.027       .  S
Cd1313     O1315   2.060       .  S
C1316      O1320   1.271   1_554  A
C1316      C1554   1.441       .  S
C1317      C1557   1.396       .  S
C1319      C1556   1.440       .  S
C1322      C1559   1.401       .  S
O1324      C1340   1.274       .  A
O1324     Zn1330   2.030       .  S
C1325      O1341   1.270       .  A
C1325      C1558   1.399       .  S
O1326      C1339   1.273       .  A
O1326     Cd1333   2.079       .  S
O1327      C1345   1.273   1_655  A
O1327     Cd1336   2.070       .  S
O1328      C1342   1.272       .  A
O1328     Cd1332   2.072       .  S
O1329     Cd1332   2.064       .  S
Zn1330     O1341   1.969       .  S
Zn1330     O1343   2.031       .  S
Zn1330     O1335   1.940       .  S
O1331      C1342   1.272       .  A
O1331     Cd1336   2.069       .  S
Cd1332     O1334   2.020       .  S
Cd1333     O1337   2.039       .  S
Cd1333     O1346   2.084       .  S
Cd1333     O1335   1.997       .  S
O1334      C1344   1.269   1_655  A
Cd1336     O1338   2.018       .  S
C1339      O1343   1.273       .  A
C1339      C1552   1.442       .  S
C1340      C1447   1.488       .  S
C1342      C1550   1.436       .  S
C1344      C1560   1.399       .  S
O1347      C1363   1.274       .  A
O1347     Zn1353   2.020       .  S
C1348      O1364   1.270       .  A
C1348      O1361   1.268       .  A
C1348      C1547   1.396       .  S
O1349     Cd1356   2.074       .  S
O1350     Cd1359   2.074       .  S
O1351      C1365   1.272       .  A
O1351     Cd1355   2.076       .  S
O1352     Cd1355   2.062       .  S
Zn1353     O1364   1.968       .  S
Zn1353     O1366   2.030       .  S
Zn1353     O1358   1.938       .  S
O1354     Cd1359   2.076       .  S
Cd1355     O1357   2.019       .  S
Cd1356     O1360   2.019       .  S
Cd1356     O1369   2.080       .  S
O1357      C1367   1.270       .  A
O1358     Cd1359   1.990       .  S
Cd1359     O1361   2.011       .  S
O1360      C1367   1.268       .  A
C1362      O1366   1.272       .  A
C1362      C1553   1.439       .  S
C1363      C1481   1.488       .  S
C1365      C1555   1.437       .  S
C1367      C1545   1.396       .  S
C1368      O1369   1.275       .  A
O1370      C1386   1.272       .  A
O1370     Zn1376   2.017       .  S
C1371      O1387   1.267       .  A
C1371      O1384   1.270       .  A
C1371      C1546   1.395       .  S
O1372      C1385   1.271       .  A
O1372     Cd1379   2.075       .  S
O1373      C1391   1.273       .  A
O1373     Cd1382   2.074       .  S
O1374      C1388   1.273       .  A
O1374     Cd1378   2.077       .  S
O1375      C1386   1.272       .  A
O1375     Cd1378   2.073       .  S
Zn1376     O1387   1.952       .  S
Zn1376     O1389   2.009       .  S
Zn1376     O1381   1.936       .  S
O1377      C1388   1.273       .  A
O1377     Cd1382   2.082       .  S
Cd1378     O1380   2.012       .  S
Cd1378     O1381   1.991       .  S
Cd1379     O1383   2.027       .  S
Cd1379     O1392   2.075       .  S
Cd1379     O1381   1.994       .  S
O1380      C1390   1.268       .  A
O1381     Cd1382   1.991       .  S
Cd1382     O1384   2.020       .  S
O1383      C1390   1.271       .  A
C1385      O1389   1.269       .  A
C1385      C1549   1.436       .  S
C1386      C1515   1.483       .  S
C1388      C1551   1.442       .  S
C1390      C1548   1.396       .  S
C1391      O1392   1.274       .  A
C1391      C1517   1.490       .  S
N1393      C1398   1.355   1_455  A
N1393      C1397   1.366   1_455  A
N1393      H1425   1.040       .  S
N1394      C1401   1.364       .  A
N1394      C1402   1.355   1_655  A
N1395      C1400   1.365       .  A
N1395      C1399   1.354   1_455  A
N1395      H1426   1.038       .  S
N1396      C1403   1.354       .  A
N1396      C1404   1.364       .  A
C1397      C1405   1.385       .  A
C1397      C1413   1.428       .  A
C1398      C1414   1.426   1_656  A
C1398      C1406   1.389       .  A
C1399      C1407   1.390       .  A
C1400      C1935   1.425       .  A
C1400      C1408   1.385   1_455  A
C1401      C1933   1.427   1_545  A
C1401      C1409   1.382   1_655  A
C1402      C1416   1.430   1_455  A
C1402      C1410   1.390       .  A
C1403      C1411   1.390       .  A
C1404      C1412   1.383       .  A
C1404      C1415   1.426       .  A
C1405      C1406   1.376       .  A
C1405      H1417   1.080       .  S
C1406      H1418   1.082       .  S
C1407      C1408   1.374       .  A
C1407      H1419   1.082       .  S
C1408      H1420   1.080       .  S
C1409      C1410   1.377       .  A
C1409      H1421   1.080       .  S
C1410      H1422   1.082       .  S
C1411      C1412   1.376       .  A
C1411      H1423   1.082       .  S
C1412      H1424   1.080       .  S
C1413      C1921   1.423   1_655  A
C1413      C1537   1.526       .  S
C1415      C1920   1.427       .  A
C1415      C1541   1.533       .  S
N1427      C1432   1.364       .  A
N1427      C1431   1.354       .  A
N1427      H1459   1.039       .  S
N1428      C1435   1.356       .  A
N1428      C1436   1.363       .  A
N1429      C1434   1.354       .  A
N1429      C1433   1.367       .  A
N1429      H1460   1.040       .  S
N1430      C1437   1.365       .  A
N1430      C1438   1.354       .  A
C1431      C1439   1.390       .  A
C1431      C1447   1.425       .  A
C1432      C1448   1.425       .  A
C1432      C1440   1.384       .  A
C1433      C1441   1.384       .  A
C1433      C1970   1.428   1_545  A
C1434      C1449   1.426       .  A
C1434      C1442   1.390       .  A
C1435      C1447   1.426       .  A
C1435      C1443   1.389       .  A
C1436      C1450   1.425       .  A
C1436      C1444   1.384       .  A
C1437      C1445   1.382       .  A
C1437      C1968   1.427   1_545  A
C1438      C1446   1.389       .  A
C1438      C1449   1.427       .  A
C1439      C1440   1.374       .  A
C1439      H1451   1.082       .  S
C1440      H1452   1.080       .  S
C1441      C1442   1.379       .  A
C1441      H1453   1.081       .  S
C1442      H1454   1.082       .  S
C1443      C1444   1.373       .  A
C1443      H1455   1.082       .  S
C1444      H1456   1.080       .  S
C1445      C1446   1.377       .  A
C1445      H1457   1.079       .  S
C1446      H1458   1.082       .  S
C1448      C1957   1.427       .  A
C1448      C1538   1.531       .  S
C1450      C1953   1.429       .  A
C1450      C1542   1.532       .  S
N1461      C1466   1.367       .  A
N1461      C1465   1.354       .  A
N1461      H1493   1.038       .  S
N1462      C1469   1.354       .  A
N1462      C1470   1.363       .  A
N1463      C1468   1.354       .  A
N1463      C1467   1.365       .  A
N1463      H1494   1.037       .  S
N1464      C1471   1.361       .  A
N1464      C1472   1.354       .  A
C1465      C1473   1.391       .  A
C1466      C1482   1.430       .  A
C1466      C1474   1.384       .  A
C1467      C1475   1.383       .  A
C1467      C2004   1.424       .  A
C1468      C1483   1.426       .  A
C1468      C1476   1.391       .  A
C1469      C1481   1.429       .  A
C1469      C1477   1.392       .  A
C1470      C1484   1.423       .  A
C1470      C1478   1.382       .  A
C1471      C1479   1.385       .  A
C1471      C2002   1.424       .  A
C1472      C1480   1.389       .  A
C1473      C1474   1.378       .  A
C1473      H1485   1.082       .  S
C1474      H1486   1.079       .  S
C1475      C1476   1.377       .  A
C1475      H1487   1.081       .  S
C1476      H1488   1.082       .  S
C1477      C1478   1.375       .  A
C1477      H1489   1.082       .  S
C1478      H1490   1.082       .  S
C1479      C1480   1.374       .  A
C1479      H1491   1.082       .  S
C1480      H1492   1.082       .  S
C1482      C1991   1.423       .  A
C1482      C1530   1.527       .  S
C1484      C1987   1.426       .  A
C1484      C1533   1.524       .  S
N1495      C1500   1.364       .  A
N1495      C1499   1.352       .  A
N1495      H1527   1.038       .  S
N1496      C1503   1.355       .  A
N1496      C1504   1.363       .  A
N1497      C1502   1.355       .  A
N1497      C1501   1.368       .  A
N1497      H1528   1.036       .  S
N1498      C1505   1.363       .  A
N1498      C1506   1.354       .  A
C1499      C1507   1.391       .  A
C1499      C1515   1.425       .  A
C1500      C1516   1.421       .  A
C1500      C1508   1.383       .  A
C1501      C1509   1.385       .  A
C1501      C2038   1.432   1_545  A
C1502      C1517   1.431       .  A
C1502      C1510   1.389       .  A
C1503      C1515   1.427       .  A
C1503      C1511   1.389       .  A
C1504      C1518   1.428       .  A
C1504      C1512   1.385       .  A
C1505      C1513   1.382       .  A
C1505      C2036   1.423   1_545  A
C1506      C1514   1.392       .  A
C1506      C1517   1.430       .  A
C1507      C1508   1.377       .  A
C1507      H1519   1.082       .  S
C1508      H1520   1.082       .  S
C1509      C1510   1.375       .  A
C1509      H1521   1.077       .  S
C1510      H1522   1.082       .  S
C1511      C1512   1.375       .  A
C1511      H1523   1.082       .  S
C1512      H1524   1.082       .  S
C1513      C1514   1.376       .  A
C1513      H1525   1.082       .  S
C1514      H1526   1.082       .  S
C1516      C2025   1.420       .  A
C1516      C1529   1.521       .  S
C1518      C2021   1.431       .  A
C1518      C1534   1.531       .  S
C1529      C1530   1.360       .  D
C1529      H2051   1.085       .  S
C1530      H1532   1.086       .  S
H1531      C2049   1.085       .  S
C1533      C1534   1.362       .  D
C1533      H1535   1.084       .  S
C1534      H2056   1.086       .  S
H1536      C2054   1.086       .  S
C1537      H2059   1.085       .  S
C1538      H1540   1.086       .  S
H1539      C2057   1.086       .  S
C1545      C1546   1.182       .  T
C1547      C1548   1.183       .  T
C1549      C1550   1.207       .  T
C1551      C1552   1.210       .  T
O1561      C1577   1.268       .  A
O1561     Zn1567   1.962       .  S
C1562      O1578   1.274   1_455  A
C1562      C1676   1.485       .  S
O1563      C1836   1.275       .  A
O1563     Cd1570   2.099       .  S
O1564      C1582   1.268       .  A
O1564     Cd1573   2.019       .  S
O1565      C1839   1.275       .  A
O1565     Cd1569   2.098       .  S
O1566     Cd1569   2.034       .  S
Zn1567     O1578   2.032       .  S
Zn1567     O1580   2.027       .  S
Zn1567     O1572   1.944       .  S
O1568      C1579   1.271   1_554  A
O1568     Cd1573   2.070       .  S
Cd1569     O1571   2.077       .  S
Cd1570     O1574   2.076       .  S
Cd1570     O1583   2.038       .  S
Cd1570     O1832   2.000       .  S
O1571      C1841   1.275       .  A
O1572     Cd1830   1.999       .  S
Cd1573     O1575   2.063       .  S
C1576      O1823   1.274       .  A
C1576      O1580   1.273       .  A
C1576      C1814   1.444       .  S
C1577      C1817   1.405       .  S
C1579      O1825   1.273       .  A
C1579      C1816   1.442       .  S
C1581      O1831   1.273   1_554  A
C1582      C1819   1.405       .  S
O1584      C1600   1.274       .  A
O1584     Zn1590   2.026       .  S
C1585      O1601   1.269       .  A
C1585      C1818   1.402       .  S
O1586      C1599   1.272       .  A
O1586     Cd1593   2.076       .  S
O1587      C1605   1.276       .  A
O1587     Cd1596   2.080       .  S
O1588      C1602   1.273       .  A
O1588     Cd1592   2.084       .  S
O1589     Cd1592   2.074       .  S
Zn1590     O1601   1.965       .  S
Zn1590     O1603   2.031       .  S
Zn1590     O1595   1.941       .  S
O1591      C1602   1.274       .  A
O1591     Cd1596   2.083       .  S
Cd1592     O1594   2.031       .  S
Cd1593     O1597   2.039       .  S
Cd1593     O1606   2.075       .  S
Cd1593     O1595   1.996       .  S
O1594      C1604   1.271   1_655  A
Cd1596     O1598   2.038       .  S
C1599      O1603   1.272       .  A
C1599      C1812   1.442       .  S
C1600      C1707   1.487       .  S
C1602      C1810   1.445       .  S
C1604      C1820   1.402       .  S
O1607      C1623   1.276   1_554  A
O1607     Zn1613   2.034       .  S
C1608      O1624   1.272       .  A
C1608      O1621   1.268       .  A
C1608      C1807   1.405       .  S
O1609      C1882   1.271       .  A
O1609     Cd1616   2.068       .  S
O1610      C1888   1.272   1_554  A
O1610     Cd1619   2.064       .  S
O1611      C1625   1.273       .  A
O1611     Cd1615   2.088       .  S
O1612      C1883   1.273       .  A
O1612     Cd1615   2.058       .  S
Zn1613     O1624   1.987       .  S
Zn1613     O1626   2.059       .  S
Zn1613     O1618   1.947   1_554  S
O1614      C1885   1.271   1_554  A
O1614     Cd1619   2.070       .  S
Cd1615     O1617   2.032       .  S
Cd1615     O1878   1.994       .  S
Cd1616     O1620   2.024       .  S
Cd1616     O1629   2.073       .  S
Cd1616     O1878   1.997       .  S
O1617      C1627   1.271       .  A
O1618     Cd1875   1.993       .  S
O1618     Cd1876   2.000       .  S
O1618     Cd1619   1.995   1_556  S
Cd1619     O1621   2.019       .  S
O1620      C1627   1.268       .  A
C1622      O1869   1.273   1_554  A
C1622      O1626   1.276       .  A
C1622      C1813   1.452       .  S
C1623      O1872   1.273       .  A
C1623      C1741   1.491       .  S
C1625      O1874   1.273       .  A
C1625      C1815   1.445       .  S
C1627      C1805   1.402       .  S
C1628      O1870   1.274       .  A
C1628      O1629   1.274       .  A
C1628      C2003   1.482       .  S
O1630      C1646   1.273       .  A
O1630     Zn1636   2.021       .  S
C1631      O1647   1.267       .  A
C1631      O1644   1.272       .  A
C1631      C1806   1.402       .  S
O1632      C1645   1.273       .  A
O1632     Cd1639   2.086       .  S
O1633      C1651   1.275       .  A
O1633     Cd1642   2.074       .  S
O1634      C1648   1.271       .  A
O1634     Cd1638   2.068       .  S
O1635      C1646   1.273       .  A
O1635     Cd1638   2.069       .  S
Zn1636     O1647   1.956       .  S
Zn1636     O1649   2.024       .  S
Zn1636     O1641   1.941       .  S
O1637      C1648   1.274       .  A
O1637     Cd1642   2.089       .  S
Cd1638     O1640   2.024       .  S
Cd1638     O1641   1.995       .  S
Cd1639     O1643   2.041       .  S
Cd1639     O1652   2.073       .  S
Cd1639     O1641   1.995       .  S
O1640      C1650   1.269       .  A
O1641     Cd1642   1.998       .  S
Cd1642     O1644   2.036       .  S
O1643      C1650   1.272       .  A
C1645      O1649   1.272       .  A
C1645      C1809   1.444       .  S
C1646      C1775   1.483       .  S
C1648      C1811   1.442       .  S
C1650      C1808   1.405       .  S
C1651      O1652   1.274       .  A
C1651      C1777   1.491       .  S
N1653      C1658   1.355   1_455  A
N1653      C1657   1.367   1_455  A
N1653      H1685   1.041       .  S
N1654      C1661   1.363       .  A
N1654      C1662   1.355       .  A
N1655      C1660   1.366   1_455  A
N1655      C1659   1.354   1_455  A
N1655      H1686   1.037       .  S
N1656      C1663   1.354       .  A
N1656      C1664   1.363       .  A
C1657      C1665   1.384       .  A
C1657      C1673   1.428   1_665  A
C1658      C1674   1.428   1_655  A
C1658      C1666   1.390       .  A
C1659      C1667   1.391       .  A
C1659      C1936   1.428   1_554  A
C1660      C1668   1.385       .  A
C1661      C1669   1.384       .  A
C1662      C1676   1.425       .  A
C1662      C1670   1.389       .  A
C1663      C1671   1.389       .  A
C1663      C1934   1.425       .  A
C1664      C1672   1.382       .  A
C1664      C1675   1.425   1_565  A
C1665      C1666   1.378       .  A
C1665      H1677   1.081       .  S
C1666      H1678   1.082       .  S
C1667      C1668   1.375       .  A
C1667      H1679   1.082       .  S
C1668      H1680   1.081       .  S
C1669      C1670   1.372       .  A
C1669      H1681   1.080       .  S
C1670      H1682   1.082       .  S
C1671      C1672   1.376       .  A
C1671      H1683   1.082       .  S
C1672      H1684   1.079       .  S
C1673      C1797   1.532   1_455  S
C1674      C1923   1.430       .  A
C1675      C1801   1.531       .  S
C1676      C1919   1.426       .  A
N1687      C1692   1.364       .  A
N1687      C1691   1.354       .  A
N1687      H1719   1.038       .  S
N1688      C1695   1.355       .  A
N1688      C1696   1.363       .  A
N1689      C1694   1.354       .  A
N1689      C1693   1.367       .  A
N1689      H1720   1.040       .  S
N1690      C1697   1.364       .  A
N1690      C1698   1.354       .  A
C1691      C1699   1.390       .  A
C1691      C1707   1.425       .  A
C1692      C1708   1.425       .  A
C1692      C1700   1.385       .  A
C1693      C1701   1.384       .  A
C1694      C1709   1.426       .  A
C1694      C1702   1.389       .  A
C1695      C1707   1.427       .  A
C1695      C1703   1.390       .  A
C1696      C1710   1.425       .  A
C1696      C1704   1.384       .  A
C1697      C1705   1.383       .  A
C1698      C1706   1.389       .  A
C1698      C1709   1.425       .  A
C1699      C1700   1.375       .  A
C1699      H1711   1.082       .  S
C1700      H1712   1.080       .  S
C1701      C1702   1.378       .  A
C1701      H1713   1.080       .  S
C1702      H1714   1.082       .  S
C1703      C1704   1.373       .  A
C1703      H1715   1.082       .  S
C1704      H1716   1.081       .  S
C1705      C1706   1.376       .  A
C1705      H1717   1.080       .  S
C1706      H1718   1.082       .  S
C1708      C1798   1.531       .  S
C1710      C1802   1.532       .  S
N1721      C1726   1.369       .  A
N1721      C1725   1.355       .  A
N1721      H1753   1.037       .  S
N1722      C1729   1.354       .  A
N1722      C1730   1.363       .  A
N1723      C1728   1.354       .  A
N1723      C1727   1.365       .  A
N1723      H1754   1.037       .  S
N1724      C1731   1.363       .  A
N1724      C1732   1.354       .  A
C1725      C1733   1.390       .  A
C1725      C2001   1.433       .  A
C1726      C1742   1.433   1_565  A
C1726      C1734   1.385       .  A
C1727      C1735   1.384       .  A
C1728      C1743   1.426   1_554  A
C1728      C1736   1.391       .  A
C1729      C1741   1.429   1_554  A
C1729      C1737   1.392       .  A
C1730      C1744   1.423   1_565  A
C1730      C1738   1.382       .  A
C1731      C1739   1.385       .  A
C1732      C1740   1.389       .  A
C1732      C2003   1.426       .  A
C1733      C1734   1.377       .  A
C1733      H1745   1.082       .  S
C1734      H1746   1.077       .  S
C1735      C1736   1.378       .  A
C1735      H1747   1.082       .  S
C1736      H1748   1.082       .  S
C1737      C1738   1.376       .  A
C1737      H1749   1.082       .  S
C1738      H1750   1.082       .  S
C1739      C1740   1.374       .  A
C1739      H1751   1.082       .  S
C1740      H1752   1.082       .  S
C1741      C1985   1.433       .  A
C1742      C1790   1.535       .  S
C1743      C1888   1.480       .  S
C1743      C1992   1.424       .  A
C1744      C1793   1.523       .  S
N1755      C1760   1.366       .  A
N1755      C1759   1.354       .  A
N1755      H1787   1.035       .  S
N1756      C1763   1.354       .  A
N1756      C1764   1.363       .  A
N1757      C1762   1.355       .  A
N1757      C1761   1.368       .  A
N1757      H1788   1.037       .  S
N1758      C1765   1.363       .  A
N1758      C1766   1.354       .  A
C1759      C1767   1.391       .  A
C1759      C1775   1.428       .  A
C1760      C1776   1.427       .  A
C1760      C1768   1.384       .  A
C1761      C1769   1.385       .  A
C1762      C1777   1.432       .  A
C1762      C1770   1.390       .  A
C1763      C1775   1.428       .  A
C1763      C1771   1.390       .  A
C1764      C1778   1.426       .  A
C1764      C1772   1.385       .  A
C1765      C1773   1.381       .  A
C1766      C1774   1.392       .  A
C1766      C1777   1.429       .  A
C1767      C1768   1.379       .  A
C1767      H1779   1.082       .  S
C1768      H1780   1.082       .  S
C1769      C1770   1.376       .  A
C1769      H1781   1.077       .  S
C1770      H1782   1.082       .  S
C1771      C1772   1.373       .  A
C1771      H1783   1.082       .  S
C1772      H1784   1.082       .  S
C1773      C1774   1.375       .  A
C1773      H1785   1.082       .  S
C1774      H1786   1.082       .  S
C1776      C1789   1.528       .  S
C1778      C1794   1.530       .  S
C1789      C1790   1.364   1_565  D
C1790      H1792   1.086       .  S
C1793      C1794   1.361   1_545  D
C1793      H1795   1.084       .  S
C1798      H1800   1.086       .  S
C1805      C1806   1.186       .  T
C1807      C1808   1.188       .  T
C1809      C1810   1.211       .  T
C1811      C1812   1.210       .  T
C1813      C2074   1.216       .  T
C1814      C2073   1.211       .  T
C1815      C2076   1.212       .  T
C1816      C2075   1.210       .  T
O1821      C1837   1.271       .  A
O1821     Zn1827   1.982       .  S
C1822      O1838   1.276       .  A
C1822      C1936   1.481       .  S
O1823     Cd1830   2.087       .  S
O1824      C1842   1.268       .  A
O1824     Cd1833   2.015       .  S
O1825     Cd1829   2.088       .  S
O1826     Cd1829   2.025       .  S
Zn1827     O1838   2.038       .  S
Zn1827     O1840   2.038       .  S
Zn1827     O1832   1.948   1_556  S
O1828      C1839   1.272       .  A
O1828     Cd1833   2.071       .  S
Cd1829     O1831   2.065       .  S
Cd1830     O1834   2.078       .  S
Cd1830     O1843   2.031       .  S
Cd1833     O1835   2.070       .  S
C1836      O1840   1.274   1_554  A
C1836      C2074   1.452       .  S
C1837      C2077   1.408       .  S
C1839      C2076   1.446       .  S
C1842      C2079   1.403       .  S
O1844      C1860   1.274       .  A
O1844     Zn1850   2.026       .  S
C1845      O1861   1.271       .  A
C1845      C2078   1.405       .  S
O1846      C1859   1.273       .  A
O1846     Cd1853   2.081       .  S
O1847      C1865   1.275   1_655  A
O1847     Cd1856   2.077       .  S
O1848      C1862   1.273       .  A
O1848     Cd1852   2.078       .  S
O1849     Cd1852   2.067       .  S
Zn1850     O1861   1.979       .  S
Zn1850     O1863   2.041       .  S
Zn1850     O1855   1.943       .  S
O1851      C1862   1.273       .  A
O1851     Cd1856   2.080       .  S
Cd1852     O1854   2.025       .  S
Cd1853     O1857   2.039       .  S
Cd1853     O1866   2.082       .  S
Cd1853     O1855   1.998       .  S
O1854      C1864   1.269   1_655  A
Cd1856     O1858   2.033       .  S
C1859      O1863   1.274       .  A
C1859      C2072   1.446       .  S
C1860      C1967   1.485       .  S
C1862      C2070   1.442       .  S
C1864      C2080   1.401       .  S
O1867      C1883   1.276       .  A
O1867     Zn1873   2.034       .  S
C1868      O1884   1.272       .  A
C1868      O1881   1.268       .  A
C1868      C2067   1.404       .  S
O1869     Cd1876   2.081       .  S
O1870     Cd1879   2.071       .  S
O1871      C1885   1.273       .  A
O1871     Cd1875   2.086       .  S
O1872     Cd1875   2.059       .  S
Zn1873     O1884   1.986       .  S
Zn1873     O1886   2.045       .  S
Zn1873     O1878   1.944       .  S
O1874     Cd1879   2.078       .  S
Cd1875     O1877   2.031       .  S
Cd1876     O1880   2.035       .  S
Cd1876     O1889   2.081       .  S
O1877      C1887   1.271       .  A
O1878     Cd1879   1.995       .  S
Cd1879     O1881   2.021       .  S
O1880      C1887   1.270       .  A
C1882      O1886   1.274       .  A
C1882      C2073   1.444       .  S
C1883      C2001   1.491       .  S
C1885      C2075   1.442       .  S
C1887      C2065   1.405       .  S
C1888      O1889   1.275       .  A
O1890      C1906   1.274       .  A
O1890     Zn1896   2.023       .  S
C1891      O1907   1.268       .  A
C1891      O1904   1.272       .  A
C1891      C2066   1.406       .  S
O1892      C1905   1.272       .  A
O1892     Cd1899   2.081       .  S
O1893      C1911   1.274       .  A
O1893     Cd1902   2.069       .  S
O1894      C1908   1.272       .  A
O1894     Cd1898   2.072       .  S
O1895      C1906   1.272       .  A
O1895     Cd1898   2.063       .  S
Zn1896     O1907   1.968       .  S
Zn1896     O1909   2.021       .  S
Zn1896     O1901   1.940       .  S
O1897      C1908   1.275       .  A
O1897     Cd1902   2.096       .  S
Cd1898     O1900   2.020       .  S
Cd1898     O1901   1.991       .  S
Cd1899     O1903   2.038       .  S
Cd1899     O1912   2.065       .  S
Cd1899     O1901   1.996       .  S
O1900      C1910   1.268       .  A
O1901     Cd1902   1.997       .  S
Cd1902     O1904   2.038       .  S
O1903      C1910   1.271       .  A
C1905      O1909   1.271       .  A
C1905      C2069   1.442       .  S
C1906      C2035   1.481       .  S
C1908      C2071   1.446       .  S
C1910      C2068   1.404       .  S
C1911      O1912   1.274       .  A
C1911      C2037   1.485       .  S
N1913      C1918   1.355   1_455  A
N1913      C1917   1.366   1_455  A
N1913      H1945   1.038       .  S
N1914      C1921   1.362   1_655  A
N1914      C1922   1.352   1_655  A
N1915      C1920   1.366       .  A
N1915      C1919   1.355       .  A
N1915      H1946   1.038       .  S
N1916      C1923   1.355       .  A
N1916      C1924   1.365       .  A
C1917      C1925   1.385       .  A
C1917      C1933   1.427       .  A
C1918      C1934   1.428   1_656  A
C1918      C1926   1.390       .  A
C1919      C1927   1.390   1_455  A
C1920      C1928   1.385   1_455  A
C1921      C1929   1.383       .  A
C1922      C1936   1.424   1_455  A
C1922      C1930   1.389       .  A
C1923      C1931   1.390       .  A
C1924      C1932   1.382       .  A
C1924      C1935   1.428   1_565  A
C1925      C1926   1.375       .  A
C1925      H1937   1.080       .  S
C1926      H1938   1.082       .  S
C1927      C1928   1.374       .  A
C1927      H1939   1.082       .  S
C1928      H1940   1.080       .  S
C1929      C1930   1.375       .  A
C1929      H1941   1.079       .  S
C1930      H1942   1.082       .  S
C1931      C1932   1.378       .  A
C1931      H1943   1.082       .  S
C1932      H1944   1.080       .  S
C1933      C2057   1.529       .  S
C1935      C2061   1.533       .  S
N1947      C1952   1.365       .  A
N1947      C1951   1.353       .  A
N1947      H1979   1.039       .  S
N1948      C1955   1.355       .  A
N1948      C1956   1.362       .  A
N1949      C1954   1.354       .  A
N1949      C1953   1.366       .  A
N1949      H1980   1.040       .  S
N1950      C1957   1.364       .  A
N1950      C1958   1.355       .  A
C1951      C1959   1.390       .  A
C1951      C1967   1.424       .  A
C1952      C1968   1.425       .  A
C1952      C1960   1.384       .  A
C1953      C1961   1.384       .  A
C1954      C1969   1.426       .  A
C1954      C1962   1.390       .  A
C1955      C1967   1.425       .  A
C1955      C1963   1.389       .  A
C1956      C1970   1.424       .  A
C1956      C1964   1.384       .  A
C1957      C1965   1.382       .  A
C1958      C1966   1.389       .  A
C1958      C1969   1.427       .  A
C1959      C1960   1.375       .  A
C1959      H1971   1.082       .  S
C1960      H1972   1.080       .  S
C1961      C1962   1.379       .  A
C1961      H1973   1.081       .  S
C1962      H1974   1.082       .  S
C1963      C1964   1.373       .  A
C1963      H1975   1.082       .  S
C1964      H1976   1.080       .  S
C1965      C1966   1.377       .  A
C1965      H1977   1.079       .  S
C1966      H1978   1.082       .  S
C1968      C2058   1.534       .  S
C1970      C2062   1.531       .  S
N1981      C1986   1.367       .  A
N1981      C1985   1.355       .  A
N1981      H2013   1.038       .  S
N1982      C1989   1.353       .  A
N1982      C1990   1.363       .  A
N1983      C1988   1.353       .  A
N1983      C1987   1.365       .  A
N1983      H2014   1.038       .  S
N1984      C1991   1.361       .  A
N1984      C1992   1.353       .  A
C1985      C1993   1.392       .  A
C1986      C2002   1.430   1_565  A
C1986      C1994   1.384       .  A
C1987      C1995   1.384       .  A
C1988      C2003   1.428       .  A
C1988      C1996   1.392       .  A
C1989      C2001   1.428       .  A
C1989      C1997   1.392       .  A
C1990      C2004   1.421   1_565  A
C1990      C1998   1.381       .  A
C1991      C1999   1.385       .  A
C1992      C2000   1.389       .  A
C1993      C1994   1.377       .  A
C1993      H2005   1.082       .  S
C1994      H2006   1.079       .  S
C1995      C1996   1.379       .  A
C1995      H2007   1.082       .  S
C1996      H2008   1.082       .  S
C1997      C1998   1.374       .  A
C1997      H2009   1.082       .  S
C1998      H2010   1.082       .  S
C1999      C2000   1.375       .  A
C1999      H2011   1.082       .  S
C2000      H2012   1.082       .  S
C2002      C2050   1.526       .  S
C2004      C2053   1.523       .  S
N2015      C2020   1.363       .  A
N2015      C2019   1.352       .  A
N2015      H2047   1.037       .  S
N2016      C2023   1.355       .  A
N2016      C2024   1.362       .  A
N2017      C2022   1.353       .  A
N2017      C2021   1.367       .  A
N2017      H2048   1.038       .  S
N2018      C2025   1.362       .  A
N2018      C2026   1.352       .  A
C2019      C2027   1.391       .  A
C2019      C2035   1.424       .  A
C2020      C2036   1.421       .  A
C2020      C2028   1.384       .  A
C2021      C2029   1.385       .  A
C2022      C2037   1.429       .  A
C2022      C2030   1.390       .  A
C2023      C2035   1.427       .  A
C2023      C2031   1.389       .  A
C2024      C2038   1.427       .  A
C2024      C2032   1.385       .  A
C2025      C2033   1.382       .  A
C2026      C2034   1.392       .  A
C2026      C2037   1.427       .  A
C2027      C2028   1.377       .  A
C2027      H2039   1.082       .  S
C2028      H2040   1.082       .  S
C2029      C2030   1.377       .  A
C2029      H2041   1.078       .  S
C2030      H2042   1.082       .  S
C2031      C2032   1.374       .  A
C2031      H2043   1.082       .  S
C2032      H2044   1.082       .  S
C2033      C2034   1.376       .  A
C2033      H2045   1.082       .  S
C2034      H2046   1.082       .  S
C2036      C2049   1.521       .  S
C2038      C2054   1.530       .  S
C2049      C2050   1.359   1_565  D
C2050      H2052   1.086       .  S
C2053      C2054   1.362   1_545  D
C2053      H2055   1.084       .  S
C2058      H2060   1.086       .  S
C2065      C2066   1.188       .  T
C2067      C2068   1.188       .  T
C2069      C2070   1.210       .  T
C2071      C2072   1.212       .  T
