geometry optimzed in LAMMPS
_audit_creation_date              2020-11-30 
_audit_creation_method            'lammps2cif' 
_symmetry_space_group_name_H-M    'P1' 
_symmetry_Int_Tables_number       1 
_symmetry_cell_setting            triclinic 
loop_ 
_symmetry_equiv_pos_as_xyz 
  x,y,z 
_cell_length_a                    34.73717157 
_cell_length_b                    34.86659451118939 
_cell_length_c                    23.556267063674994 
_cell_angle_alpha                 90.20560124954685 
_cell_angle_beta                  87.8374867675283 
_cell_angle_gamma                 121.27270802480992 
loop_ 
_atom_site_label 
_atom_site_type_symbol 
_atom_site_fract_x 
_atom_site_fract_y 
_atom_site_fract_z 
_atom_site_charge 
O1          O  0.23617784  0.34043927  0.30933020    -0.86000
O2          O  0.15400582  0.25871179  0.29863992    -0.83100
C3          C  0.12501055  0.25384441  0.33598708     0.97400
O4          O  0.10631588  0.27668781  0.32948728    -0.83100
O5          O  0.10237987  0.35189468  0.29771132    -0.85700
C6          C  0.12840974  0.38438678  0.32838922     1.02000
O7          O  0.17076469  0.40217383  0.31782119    -0.78500
O8          O  0.25450185  0.40814165  0.28456691    -0.78700
C9          C  0.26223316  0.38286811  0.31458198     1.01900
O10         O  0.24346709  0.34576106  0.18554402    -0.86000
O11         O  0.16011564  0.27037557  0.17266594    -0.83100
C12         C  0.11860391  0.24009223  0.17585939     0.97500
O13         O  0.09414348  0.24772965  0.21027172    -0.83100
O14         O  0.10141458  0.33348913  0.17996597    -0.85700
C15         C  0.11958370  0.37553536  0.16955466     1.01900
O16         O  0.15439006  0.40202242  0.19602198    -0.78500
O17         O  0.23194867  0.39903766  0.16412441    -0.78700
C18         C  0.25179719  0.37740839  0.15261777     1.01900
Cr19       Cr  0.19577572  0.30656470  0.24212819     1.93700
Cr20       Cr  0.10714577  0.30550363  0.25310749     1.93200
Cr21       Cr  0.19966547  0.39692946  0.24124780     1.39100
O22         O  0.16773310  0.33666143  0.24561906    -1.23800
C23         C  0.20233558  0.10040468  0.13665098    -0.03200
C24         C  0.40199728  0.30142303  0.36447847    -0.03200
C25         C  0.20205579  0.10818770  0.38397184    -0.03200
C26         C  0.10641376  0.40568116  0.36909566    -0.03200
C27         C  0.09914940  0.39689884  0.12936367    -0.03200
C28         C  0.39523884  0.29486948  0.12240752    -0.03200
C29         C  0.29113507  0.39258589  0.10469847    -0.03200
C30         C  0.10632813  0.21265166  0.37899655    -0.03200
C31         C  0.40210538  0.10934005  0.36985851    -0.03200
C32         C  0.30321735  0.40412091  0.35716346    -0.03200
C33         C  0.38940872  0.09399496  0.12708028    -0.03200
C34         C  0.09828353  0.19356842  0.14127141    -0.03200
O35         O  0.24967668  0.15333511  0.30141679    -0.86000
O36         O  0.33462121  0.23226027  0.32267528    -0.83100
C37         C  0.37747611  0.25833580  0.32410191     0.97400
O38         O  0.40149695  0.25118205  0.28831434    -0.83100
O39         O  0.40029029  0.17060227  0.31477346    -0.85700
C40         C  0.38067023  0.12917653  0.32936904     1.02000
O41         O  0.34458046  0.10200770  0.30562294    -0.78500
O42         O  0.26848315  0.10803496  0.33483441    -0.78700
C43         C  0.24420908  0.12567646  0.33973463     1.01900
O44         O  0.26993287  0.16255528  0.18170025    -0.86000
O45         O  0.34674683  0.24959204  0.20358011    -0.83100
C46         C  0.37416841  0.25304437  0.16461980     0.97500
O47         O  0.38866907  0.22626181  0.16738793    -0.83100
O48         O  0.39490652  0.15186287  0.19265283    -0.85700
C49         C  0.36825730  0.11577796  0.16817944     1.01900
O50         O  0.32659909  0.09572448  0.18423192    -0.78500
O51         O  0.24677211  0.09496516  0.21266787    -0.78700
C52         C  0.24268656  0.12043147  0.17842415     1.01900
Cr53       Cr  0.30270765  0.19627909  0.25221306     1.93700
Cr54       Cr  0.39096787  0.19714822  0.24186603     1.93200
Cr55       Cr  0.29966744  0.10605750  0.25884809     1.39100
O56         O  0.33131853  0.16627158  0.25165820    -1.23800
C57         C  0.44240429  0.11697695  0.14180242    -0.06800
C58         C  0.46289561  0.09678587  0.17098512    -0.17900
C59         C  0.01281690  0.12089306  0.17725339     0.10400
C60         C  0.04396374  0.16537996  0.15269063    -0.06700
C61         C  0.02222395  0.18475717  0.12682543    -0.18000
C62         C  0.47393832  0.16216696  0.12351518     0.10400
S63         S  0.02648368  0.09171767  0.22902654    -0.32900
S64         S  0.45659114  0.19794060  0.09642075    -0.32900
H65         H  0.46087477  0.21695715  0.15021941     0.28400
H66         H  0.06947115  0.12705409  0.24130351     0.28400
H67         H  0.44120685  0.06371979  0.18977710     0.19000
H68         H  0.04307402  0.21760530  0.10758517     0.19000
C69         C  0.39340196  0.10785403  0.43592892    -0.06800
C70         C  0.41288709  0.08695403  0.46398907    -0.17900
C71         C  0.41464106  0.08667133  0.02529922     0.10400
C72         C  0.39467408  0.10503912  0.06153895    -0.06700
C73         C  0.37933117  0.13046908  0.03401146    -0.18000
C74         C  0.37801303  0.13100752  0.47104158     0.10400
S75         S  0.43753783  0.05255987  0.04460847    -0.32900
S76         S  0.36091926  0.16766632  0.44421887    -0.32900
H77         H  0.33227327  0.13814838  0.40430020     0.28400
H78         H  0.42136399  0.03765545  0.09924111     0.28400
H79         H  0.42898868  0.07247589  0.43916904     0.19000
H80         H  0.36997754  0.15040240  0.05957731     0.19000
C81         C  0.37789608  0.05593002  0.35849155    -0.06800
C82         C  0.40037529  0.03381595  0.33800992    -0.17900
C83         C  0.38016136  0.48821241  0.33419822     0.10400
C84         C  0.33293087  0.45866779  0.35118200    -0.06700
C85         C  0.31094959  0.48204774  0.36271324    -0.18000
C86         C  0.33074840  0.02612650  0.37240426     0.10400
S87         S  0.41081367  0.46892371  0.29115521    -0.32900
S88         S  0.29483468  0.04479228  0.40290574    -0.32900
H89         H  0.25359779  0.01054747  0.38268180     0.28400
H90         H  0.44177887  0.51042529  0.26503783     0.28400
H91         H  0.43555185  0.05435218  0.32489635     0.19000
H92         H  0.27580299  0.46484140  0.35778113     0.19000
C93         C  0.10452269  0.20053777  0.07218327    -0.06800
C94         C  0.13322322  0.24274327  0.04418409    -0.17900
C95         C  0.13695291  0.24939488  0.48401191     0.10400
C96         C  0.11088897  0.21410499  0.44655601    -0.06700
C97         C  0.08242716  0.17278117  0.47392395    -0.18000
C98         C  0.07914029  0.16529208  0.03269755     0.10400
S99         S  0.17495710  0.30389647  0.45626913    -0.32900
S100        S  0.03711344  0.10875504  0.04863438    -0.32900
H101        H  0.05060989  0.08855979  0.00687382     0.28400
H102        H  0.14499226  0.30387082  0.41924018     0.28400
H103        H  0.15264457  0.27137557  0.06991859     0.19000
H104        H  0.06130229  0.14447985  0.44775271     0.19000
C105        C  0.45628064  0.14020250  0.36408822    -0.06800
C106        C  0.47943407  0.17297894  0.40581144    -0.17900
C107        C  0.02728488  0.20051124  0.40909931     0.10400
C108        C  0.05400803  0.19010749  0.37213661    -0.06700
C109        C  0.03226627  0.16663528  0.32362162    -0.18000
C110        C  0.48482239  0.14638109  0.31619862     0.10400
S111        S  0.05035564  0.24999001  0.45245935    -0.32900
S112        S  0.47672593  0.17170984  0.25703070    -0.32900
H113        H  0.43596365  0.13201811  0.25113450     0.28400
H114        H  0.01649894  0.23073795  0.49574328     0.28400
H115        H  0.46124231  0.18131321  0.43632822     0.19000
H116        H  0.05341320  0.17157730  0.28644941     0.19000
C117        C  0.31940872  0.44526889  0.11016913    -0.06800
C118        C  0.33104749  0.46463389  0.16472181    -0.17900
C119        C  0.34655204  0.01095670  0.17503030     0.10400
C120        C  0.35592564  0.04012024  0.12845842    -0.06700
C121        C  0.33365252  0.01655307  0.07886748    -0.18000
C122        C  0.32778937  0.47596173  0.06556339     0.10400
S123        S  0.33632907  0.02629582  0.24161543    -0.32900
S124        S  0.34769253  0.47238219  0.99491257    -0.32900
H125        H  0.35444606  0.43707687  0.00716018     0.28400
H126        H  0.37986303  0.06361582  0.24170446     0.28400
H127        H  0.32339256  0.44301789  0.20158234     0.19000
H128        H  0.33004406  0.03319207  0.04270853     0.19000
C129        C  0.28154910  0.38866931  0.42090466    -0.06800
C130        C  0.28634559  0.35588467  0.44944723    -0.17900
C131        C  0.27700183  0.34637518  0.00792219     0.10400
C132        C  0.27071066  0.37625725  0.04358304    -0.06700
C133        C  0.25259840  0.39801689  0.01516179    -0.18000
C134        C  0.25587146  0.40286524  0.45516653     0.10400
S135        S  0.25186257  0.28716597  0.02187458    -0.32900
S136        S  0.21820668  0.41803950  0.42910026    -0.32900
H137        H  0.20336769  0.38351691  0.38990156     0.28400
H138        H  0.22056075  0.28534020  0.06203987     0.28400
H139        H  0.29248658  0.33301418  0.42544619     0.19000
H140        H  0.23999345  0.41511875  0.03990551     0.19000
C141        C  0.32169317  0.37123959  0.11482758    -0.06800
C142        C  0.29937006  0.32477939  0.12547791    -0.17900
C143        C  0.31991445  0.29933934  0.12818234     0.10400
C144        C  0.36798890  0.32024989  0.12454335    -0.06700
C145        C  0.39033068  0.36615715  0.10849006    -0.18000
C146        C  0.36962089  0.39208179  0.10685644     0.10400
S147        S  0.27749348  0.24058855  0.13041590    -0.32900
S148        S  0.40791172  0.45158881  0.09842666    -0.32900
H149        H  0.44724257  0.45210749  0.08037251     0.28400
H150        H  0.30290005  0.22180030  0.12079693     0.28400
H151        H  0.26344569  0.30625643  0.13136368     0.19000
H152        H  0.42573647  0.38332514  0.09938486     0.19000
C153        C  0.04565191  0.37086657  0.14350939    -0.06800
C154        C  0.01963139  0.39011787  0.16238661    -0.17900
C155        C  0.47058499  0.36344112  0.16983771     0.10400
C156        C  0.44539883  0.32071805  0.14418162    -0.06700
C157        C  0.47082683  0.30135967  0.12837293    -0.18000
C158        C  0.01875117  0.32482513  0.12954279     0.10400
S159        S  0.44560415  0.38958467  0.20997923    -0.32900
S160        S  0.04083674  0.29441850  0.09544109    -0.32900
H161        H  0.03421262  0.27074965  0.14656286     0.28400
H162        H  0.40686985  0.34841823  0.22499598     0.28400
H163        H  0.03384211  0.42535226  0.16672965     0.19000
H164        H  0.45392998  0.27058520  0.10575623     0.19000
C165        C  0.09848770  0.39359103  0.43649756    -0.06800
C166        C  0.11476720  0.36977007  0.46547548    -0.17900
C167        C  0.11883852  0.37133687  0.02636155     0.10400
C168        C  0.10267499  0.39406162  0.06156113    -0.06700
C169        C  0.08622571  0.41693701  0.03178278    -0.18000
C170        C  0.07970101  0.41347306  0.47319483     0.10400
S171        S  0.14331020  0.34189092  0.05544269    -0.32900
S172        S  0.05374620  0.44295729  0.44670611    -0.32900
H173        H  0.04831561  0.46149596  0.49727171     0.28400
H174        H  0.17052013  0.37284661  0.09466931     0.28400
H175        H  0.12754624  0.35293077  0.44021404     0.19000
H176        H  0.07477516  0.43562090  0.05642615     0.19000
C177        C  0.17331401  0.13024231  0.36466379    -0.06800
C178        C  0.19755696  0.17742934  0.36073265    -0.17900
C179        C  0.17768758  0.20376835  0.36224454     0.10400
C180        C  0.12977459  0.18439872  0.36142004    -0.06700
C181        C  0.10509919  0.13712672  0.35599165    -0.18000
C182        C  0.12518149  0.11010702  0.36034756     0.10400
S183        S  0.21661918  0.26171787  0.37580872    -0.32900
S184        S  0.08637396  0.05152109  0.37368244    -0.32900
H185        H  0.04679511  0.04926066  0.35707513     0.28400
H186        H  0.25530410  0.26491829  0.34981615     0.28400
H187        H  0.23324121  0.19460337  0.36615695     0.19000
H188        H  0.06887463  0.12046989  0.35613418     0.19000
C189        C  0.17602322  0.05531645  0.37931462    -0.06800
C190        C  0.17452159  0.03489805  0.32673911    -0.17900
C191        C  0.15797951  0.48934753  0.31881539     0.10400
C192        C  0.14048603  0.45940982  0.36668840    -0.06700
C193        C  0.16014146  0.48257823  0.41695441    -0.18000
C194        C  0.16409707  0.02607791  0.42655021     0.10400
S195        S  0.18565787  0.47938590  0.26054810    -0.32900
S196        S  0.14441968  0.03402724  0.49348542    -0.32900
H197        H  0.12646691  0.05861514  0.47260411     0.28400
H198        H  0.22785368  0.51895551  0.26608698     0.28400
H199        H  0.19059480  0.05580056  0.28985134     0.19000
H200        H  0.16292033  0.46598917  0.45375062     0.19000
C201        C  0.39777497  0.28934041  0.43065339    -0.06800
C202        C  0.43615737  0.31430308  0.46270353    -0.17900
C203        C  0.43509289  0.31742426  0.02006901     0.10400
C204        C  0.39737094  0.28696997  0.05547673    -0.06700
C205        C  0.35944291  0.25694497  0.02360320    -0.18000
C206        C  0.35803977  0.26099834  0.46443279     0.10400
S207        S  0.48112764  0.37028832  0.03964987    -0.30900
S208        S  0.30365261  0.23324409  0.43485131    -0.32900
H209        H  0.27908184  0.22418992  0.48672099     0.28400
H210        H  0.50773852  0.35182996  0.02628528     0.28400
H211        H  0.46778578  0.33905058  0.44296901     0.19000
H212        H  0.32970962  0.23050092  0.04355925     0.19000
C213        C  0.45465957  0.32624438  0.34592302    -0.06800
C214        C  0.47992921  0.37152823  0.32858502    -0.17900
C215        C  0.02760229  0.39850421  0.32899611     0.10400
C216        C  0.05432910  0.38154250  0.35064433    -0.06700
C217        C  0.02886768  0.33444879  0.36097630    -0.18000
C218        C  0.48110986  0.30690612  0.35757969     0.10400
S219        S  0.04749811  0.45381484  0.30495326    -0.32900
S220        S  0.45617746  0.25005171  0.38133394    -0.32900
H221        H  0.47588126  0.26196599  0.43454135     0.28400
H222        H  0.08073325  0.47434068  0.34311257     0.28400
H223        H  0.46226984  0.38823344  0.31843146     0.19000
H224        H  0.04587050  0.31818789  0.37671443     0.19000
C225        C  0.33636277  0.38506095  0.34878350    -0.06800
C226        C  0.37088361  0.39686884  0.38703068    -0.17900
C227        C  0.39460056  0.37396708  0.39086580     0.10400
C228        C  0.38216176  0.33394053  0.35855214    -0.06700
C229        C  0.35047915  0.32541187  0.31742230    -0.18000
C230        C  0.33103983  0.35189046  0.31068050     0.10400
S231        S  0.44182305  0.40103329  0.43545565    -0.32900
S232        S  0.31568383  0.35453676  0.24274273    -0.32900
H233        H  0.29009420  0.30757612  0.23881227     0.28400
H234        H  0.45030431  0.44500164  0.42998599     0.28400
H235        H  0.37853578  0.42403605  0.41560225     0.19000
H236        H  0.34373609  0.30079721  0.28547665     0.19000
C237        C  0.17467801  0.04668338  0.14333785    -0.06800
C238        C  0.18452141  0.02152237  0.10598622    -0.17900
C239        C  0.17194430  0.47830877  0.11624196     0.10400
C240        C  0.12760841  0.44986660  0.14025370    -0.06700
C241        C  0.11427219  0.47200219  0.17916004    -0.18000
C242        C  0.13921419  0.01939985  0.18506442     0.10400
S243        S  0.20373931  0.45881653  0.07841095    -0.32900
S244        S  0.11453391  0.04094331  0.23487350    -0.32900
H245        H  0.15392107  0.08029440  0.24892674     0.28400
H246        H  0.22865504  0.49706621  0.04300068     0.28400
H247        H  0.20414628  0.03503099  0.06857023     0.19000
H248        H  0.09012174  0.45229038  0.21217460     0.19000
C249        C  0.22122523  0.11897231  0.07237478    -0.06800
C250        C  0.20854161  0.14587738  0.04479466    -0.17900
C251        C  0.20060242  0.14285837  0.48795555     0.10400
C252        C  0.21778148  0.12284185  0.44862541    -0.06700
C253        C  0.24652796  0.11093739  0.47521905    -0.18000
C254        C  0.24901728  0.10974293  0.03624448     0.10400
S255        S  0.15519825  0.15097881  0.47848734    -0.32900
S256        S  0.28411267  0.09327446  0.06831403    -0.32900
H257        H  0.28592077  0.06933419  0.02120058     0.28400
H258        H  0.17790129  0.19484642  0.49945854     0.28400
H259        H  0.19746285  0.16482220  0.06942801     0.19000
H260        H  0.26283382  0.09766588  0.44925099     0.19000
C261        C  0.16914218  0.11706118  0.15285873    -0.06800
C262        C  0.18220555  0.15342558  0.18896475    -0.17900
C263        C  0.16385714  0.18099168  0.18748275     0.10400
C264        C  0.12314655  0.16712358  0.15726998    -0.06700
C265        C  0.10408600  0.12333697  0.13740375    -0.18000
C266        C  0.12634825  0.10014916  0.12936442     0.10400
S267        S  0.19764075  0.23191824  0.22482177    -0.32900
S268        S  0.09521644  0.04697769  0.09428719    -0.32900
H269        H  0.05133208  0.03912208  0.10160236     0.28400
H270        H  0.23144608  0.22628358  0.24701250     0.28400
H271        H  0.20805038  0.16158307  0.21805766     0.19000
H272        H  0.06944189  0.10421783  0.13305153     0.19000
O273        O  0.23531084  0.33926610  0.80944471    -0.86000
O274        O  0.15328034  0.25709620  0.79826087    -0.83100
C275        C  0.12438695  0.25222788  0.83576210     0.97400
O276        O  0.10575367  0.27518573  0.82960675    -0.83100
O277        O  0.10183942  0.35066050  0.79814086    -0.85700
C278        C  0.12804330  0.38332631  0.82848451     1.02000
O279        O  0.17030537  0.40092503  0.81778392    -0.78500
O280        O  0.25386157  0.40700259  0.78444423    -0.78700
C281        C  0.26146377  0.38174488  0.81467909     1.01900
O282        O  0.24262582  0.34468725  0.68534575    -0.86000
O283        O  0.15889855  0.26927048  0.67258510    -0.83100
C284        C  0.11745920  0.23872101  0.67606898     0.97500
O285        O  0.09303216  0.24622166  0.71067334    -0.83100
O286        O  0.10055436  0.33204014  0.68045710    -0.85700
C287        C  0.11876443  0.37405590  0.66987404     1.01900
O288        O  0.15359448  0.40073803  0.69619790    -0.78500
O289        O  0.23119725  0.39802816  0.66401793    -0.78700
C290        C  0.25115715  0.37651230  0.65258744     1.01900
Cr291      Cr  0.19492052  0.30533149  0.74199758     1.93700
Cr292      Cr  0.10634974  0.30412108  0.75348042     1.93200
Cr293      Cr  0.19894607  0.39569814  0.74122395     1.39100
O294        O  0.16692511  0.33537540  0.74571163    -1.23800
C295        C  0.20276874  0.10020670  0.63662775    -0.03200
C296        C  0.40238387  0.30107026  0.86375878    -0.03200
C297        C  0.20221817  0.10686281  0.88335965    -0.03200
C298        C  0.10654491  0.40522760  0.86884801    -0.03200
C299        C  0.09812590  0.39512127  0.62989271    -0.03200
C300        C  0.39545596  0.29465778  0.62301870    -0.03200
C301        C  0.29079384  0.39195787  0.60500645    -0.03200
C302        C  0.10586249  0.21111122  0.87881091    -0.03200
C303        C  0.40172482  0.11011150  0.87305044    -0.03200
C304        C  0.30250220  0.40308839  0.85735407    -0.03200
C305        C  0.39051477  0.09342631  0.62396036    -0.03200
C306        C  0.09729953  0.19216749  0.64147904    -0.03200
O307        O  0.25011236  0.15274666  0.80128959    -0.86000
O308        O  0.33518522  0.23138547  0.82255566    -0.83100
C309        C  0.37798007  0.25788575  0.82339971     0.97400
O310        O  0.40191342  0.25086329  0.78725405    -0.83100
O311        O  0.40011626  0.17027789  0.81490384    -0.85700
C312        C  0.38058231  0.12899804  0.83027568     1.02000
O313        O  0.34559591  0.10123786  0.80480541    -0.78500
O314        O  0.26914628  0.10742494  0.83404396    -0.78700
C315        C  0.24468347  0.12491043  0.83928820     1.01900
O316        O  0.27033309  0.16219237  0.68169089    -0.86000
O317        O  0.34700797  0.24888068  0.70357534    -0.83100
C318        C  0.37444138  0.25253488  0.66453943     0.97500
O319        O  0.38895833  0.22569576  0.66673329    -0.83100
O320        O  0.39577309  0.15110523  0.69124604    -0.85700
C321        C  0.36928934  0.11481617  0.66664096     1.01900
O322        O  0.32773970  0.09416672  0.68371355    -0.78500
O323        O  0.24779713  0.09440569  0.71159472    -0.78700
C324        C  0.24322378  0.12008421  0.67819273     1.01900
Cr325      Cr  0.30319013  0.19556468  0.75208441     1.93700
Cr326      Cr  0.39143024  0.19652570  0.74107933     1.93200
Cr327      Cr  0.30054352  0.10522714  0.75801591     1.39100
O328        O  0.33187437  0.16550215  0.75076382    -1.23800
C329        C  0.44351522  0.11642672  0.63805241    -0.06800
C330        C  0.46446889  0.09592792  0.66542347    -0.17900
C331        C  0.01113090  0.11961521  0.67928652     0.10400
C332        C  0.04266153  0.16353027  0.65277053    -0.06700
C333        C  0.02093035  0.18283111  0.62667537    -0.18000
C334        C  0.47463782  0.16208210  0.62122915     0.10400
S335        S  0.02509255  0.09009894  0.73009745    -0.32900
S336        S  0.45676137  0.19751158  0.59427833    -0.32900
H337        H  0.46104909  0.21643255  0.64812406     0.28400
H338        H  0.06861794  0.12492229  0.74120879     0.28400
H339        H  0.44394475  0.06204581  0.68131005     0.19000
H340        H  0.04173767  0.21537126  0.60659044     0.19000
C341        C  0.39290788  0.10905735  0.93911939    -0.06800
C342        C  0.41317962  0.08908930  0.96776553    -0.17900
C343        C  0.41510780  0.08518044  0.52163126     0.10400
C344        C  0.39568635  0.10408887  0.55827130    -0.06700
C345        C  0.38009532  0.12925507  0.53103078    -0.18000
C346        C  0.37734382  0.13214348  0.97386704     0.10400
S347        S  0.43869432  0.05168645  0.54057629    -0.32900
S348        S  0.36096164  0.16908673  0.94610387    -0.32900
H349        H  0.33334448  0.13990297  0.90510609     0.28400
H350        H  0.42111645  0.03566054  0.59431551     0.28400
H351        H  0.43087011  0.07605263  0.94371701     0.19000
H352        H  0.37077170  0.14910848  0.55675976     0.19000
C353        C  0.37826348  0.05673582  0.86310951    -0.06800
C354        C  0.40260064  0.03485073  0.85199683    -0.17900
C355        C  0.37989317  0.48722012  0.83567226     0.10400
C356        C  0.33240177  0.45773868  0.85153151    -0.06700
C357        C  0.31052184  0.48134470  0.86256801    -0.18000
C358        C  0.33062744  0.02679557  0.87153705     0.10400
S359        S  0.41098478  0.46789866  0.79358024    -0.32900
S360        S  0.29371131  0.04497721  0.89989378    -0.32900
H361        H  0.25277816  0.00934922  0.88101071     0.28400
H362        H  0.44507066  0.50990148  0.77177223     0.28400
H363        H  0.43861593  0.05576046  0.84439372     0.19000
H364        H  0.27544589  0.46437429  0.85681684     0.19000
C365        C  0.10407368  0.19971087  0.57240981    -0.06800
C366        C  0.13290913  0.24225923  0.54498507    -0.17900
C367        C  0.13692135  0.24923527  0.98313253     0.10400
C368        C  0.11089267  0.21341390  0.94622658    -0.06700
C369        C  0.08272654  0.17239244  0.97414451    -0.18000
C370        C  0.07924764  0.16481022  0.53230551     0.10400
S371        S  0.17427232  0.30367569  0.95472671    -0.32900
S372        S  0.04026987  0.10711524  0.54698371    -0.32900
H373        H  0.05573661  0.08974114  0.50369793     0.28400
H374        H  0.14366100  0.30314832  0.91842535     0.28400
H375        H  0.15254704  0.27066447  0.57097575     0.19000
H376        H  0.06168269  0.14379801  0.94830260     0.19000
C377        C  0.45581059  0.14104627  0.86716062    -0.06800
C378        C  0.47933583  0.17382767  0.90871563    -0.17900
C379        C  0.02680291  0.19934494  0.90821670     0.10400
C380        C  0.05349898  0.18838414  0.87198937    -0.06700
C381        C  0.03199060  0.16483160  0.82333734    -0.18000
C382        C  0.48385535  0.14599647  0.81939446     0.10400
S383        S  0.05005780  0.24907401  0.95129051    -0.32900
S384        S  0.47116452  0.16251426  0.75610718    -0.32900
H385        H  0.43151134  0.12072582  0.75376184     0.28400
H386        H  0.01385633  0.23288961  0.99131129     0.28400
H387        H  0.46127852  0.18218614  0.93943124     0.19000
H388        H  0.05362756  0.16991383  0.78665789     0.19000
C389        C  0.31900553  0.44456164  0.61063789    -0.06800
C390        C  0.33065499  0.46386728  0.66519204    -0.17900
C391        C  0.35047231  0.01127710  0.67109337     0.10400
C392        C  0.35691986  0.03973364  0.62530917    -0.06700
C393        C  0.33355503  0.01587549  0.57637231    -0.18000
C394        C  0.32762639  0.47530631  0.56599485     0.10400
S395        S  0.36408027  0.03358959  0.73834929    -0.32900
S396        S  0.34751445  0.47171517  0.49533694    -0.32900
H397        H  0.35527953  0.43712767  0.50796789     0.28400
H398        H  0.38906178  0.01279214  0.74339306     0.28400
H399        H  0.32287526  0.44222425  0.70206357     0.19000
H400        H  0.32968773  0.03255866  0.54045982     0.19000
C401        C  0.28077363  0.38789061  0.92099309    -0.06800
C402        C  0.28497958  0.35480420  0.94967204    -0.17900
C403        C  0.27812633  0.34699581  0.50758753     0.10400
C404        C  0.27093473  0.37609978  0.54354914    -0.06700
C405        C  0.25251314  0.39766920  0.51527975    -0.18000
C406        C  0.25571551  0.40280625  0.95511371     0.10400
S407        S  0.25361870  0.28783857  0.52078752    -0.32900
S408        S  0.21825131  0.41820170  0.92905958    -0.32900
H409        H  0.20316767  0.38347065  0.89018721     0.28400
H410        H  0.22107030  0.28503960  0.55970435     0.28400
H411        H  0.29067303  0.33159499  0.92577041     0.19000
H412        H  0.23956269  0.41438169  0.54033267     0.19000
C413        C  0.32133749  0.37065766  0.61553240    -0.06800
C414        C  0.29908778  0.32413688  0.62567096    -0.17900
C415        C  0.31983156  0.29882785  0.62838805     0.10400
C416        C  0.36796442  0.31989326  0.62549809    -0.06700
C417        C  0.39022313  0.36597929  0.61037774    -0.18000
C418        C  0.36931010  0.39167457  0.60834575     0.10400
S419        S  0.27763970  0.24006074  0.62965133    -0.32900
S420        S  0.40767525  0.45117005  0.60065558    -0.32900
H421        H  0.44419818  0.45059424  0.57363302     0.28400
H422        H  0.30330005  0.22157527  0.62050420     0.28400
H423        H  0.26307172  0.30548377  0.63077482     0.19000
H424        H  0.42575677  0.38363381  0.60234575     0.19000
C425        C  0.04486906  0.36901812  0.64480148    -0.06800
C426        C  0.01922941  0.38794939  0.66603555    -0.17900
C427        C  0.47083475  0.36287410  0.67128155     0.10400
C428        C  0.44565950  0.32040901  0.64488174    -0.06700
C429        C  0.47114426  0.30124453  0.62845050    -0.18000
C430        C  0.01787118  0.32318243  0.62979022     0.10400
S431        S  0.44567957  0.38877478  0.71158142    -0.32900
S432        S  0.03993572  0.29275781  0.59554503    -0.32900
H433        H  0.03391701  0.26921848  0.64658075     0.28400
H434        H  0.40678987  0.34754491  0.72582526     0.28400
H435        H  0.03436393  0.42276152  0.67487088     0.19000
H436        H  0.45430342  0.27060317  0.60549593     0.19000
C437        C  0.09873517  0.39375327  0.93634934    -0.06800
C438        C  0.11528141  0.37034423  0.96562050    -0.17900
C439        C  0.11719926  0.36954452  0.52637476     0.10400
C440        C  0.10060184  0.39172167  0.56188109    -0.06700
C441        C  0.08437569  0.41491873  0.53231641    -0.18000
C442        C  0.08093973  0.41472550  0.97275859     0.10400
S443        S  0.14247681  0.34097008  0.55570474    -0.32900
S444        S  0.05528827  0.44441258  0.94597598    -0.32900
H445        H  0.04991619  0.46315407  0.99639249     0.28400
H446        H  0.17003069  0.37297169  0.59388677     0.28400
H447        H  0.12747205  0.35288843  0.94058663     0.19000
H448        H  0.07287309  0.43344896  0.55721259     0.19000
C449        C  0.17319553  0.12872917  0.86413436    -0.06800
C450        C  0.19713610  0.17591033  0.86160591    -0.17900
C451        C  0.17710418  0.20208475  0.86301312     0.10400
C452        C  0.12929398  0.18272420  0.86158669    -0.06700
C453        C  0.10477745  0.13545716  0.85549763    -0.18000
C454        C  0.12504319  0.10848215  0.85932665     0.10400
S455        S  0.21585944  0.26011485  0.87593511    -0.32900
S456        S  0.08658679  0.04973375  0.87206073    -0.32900
H457        H  0.04560949  0.04830258  0.86765948     0.28400
H458        H  0.25351443  0.26344340  0.84660150     0.28400
H459        H  0.23278718  0.19319219  0.86720462     0.19000
H460        H  0.06857780  0.11875817  0.85514364     0.19000
C461        C  0.17681271  0.05401226  0.87854819    -0.06800
C462        C  0.17626044  0.03387678  0.82602183    -0.17900
C463        C  0.15943159  0.48859278  0.81841561     0.10400
C464        C  0.14149022  0.45868997  0.86616647    -0.06700
C465        C  0.16209541  0.48160985  0.91612822    -0.18000
C466        C  0.16524073  0.02470335  0.92571674     0.10400
S467        S  0.18862820  0.47925483  0.76101985    -0.32900
S468        S  0.14561965  0.03202746  0.99290175    -0.32900
H469        H  0.12407726  0.05291465  0.97146107     0.28400
H470        H  0.23080913  0.51827336  0.76914541     0.28400
H471        H  0.19305789  0.05484758  0.78940709     0.19000
H472        H  0.16533282  0.46472986  0.95231219     0.19000
C473        C  0.39798990  0.28877124  0.92986109    -0.06800
C474        C  0.43649695  0.31272203  0.96198959    -0.17900
C475        C  0.43474029  0.31853053  0.52083138     0.10400
C476        C  0.39762505  0.28706004  0.55613453    -0.06700
C477        C  0.36011652  0.25607803  0.52434384    -0.18000
C478        C  0.35784207  0.26163888  0.96356799     0.10400
S479        S  0.48049699  0.37119027  0.54128593    -0.30900
S480        S  0.30360024  0.23525339  0.93349352    -0.32900
H481        H  0.27815608  0.22401075  0.98493271     0.28400
H482        H  0.50703175  0.35264554  0.52814186     0.28400
H483        H  0.46835892  0.33692211  0.94234097     0.19000
H484        H  0.33123793  0.22836898  0.54421180     0.19000
C485        C  0.45510900  0.32636260  0.84511085    -0.06800
C486        C  0.48026298  0.37189365  0.82880834    -0.17900
C487        C  0.02780129  0.39878443  0.82934250     0.10400
C488        C  0.05446802  0.38155569  0.85048032    -0.06700
C489        C  0.02882077  0.33441874  0.86042630    -0.18000
C490        C  0.48177192  0.30708818  0.85568465     0.10400
S491        S  0.04753767  0.45423633  0.80561992    -0.32900
S492        S  0.45715427  0.25011531  0.87868390    -0.32900
H493        H  0.47642925  0.26185248  0.93211153     0.28400
H494        H  0.08263168  0.47479937  0.84126575     0.28400
H495        H  0.46247135  0.38867504  0.81978193     0.19000
H496        H  0.04561242  0.31802288  0.87643793     0.19000
C497        C  0.33551568  0.38375236  0.84932343    -0.06800
C498        C  0.36980794  0.39531187  0.88793525    -0.17900
C499        C  0.39400966  0.37282592  0.89128891     0.10400
C500        C  0.38210974  0.33324871  0.85828470    -0.06700
C501        C  0.35021851  0.32453005  0.81744476    -0.18000
C502        C  0.33041636  0.35071447  0.81103043     0.10400
S503        S  0.44129386  0.39965010  0.93596493    -0.32900
S504        S  0.31400738  0.35251513  0.74342828    -0.32900
H505        H  0.28963337  0.30555790  0.73927409     0.28400
H506        H  0.44672727  0.44255881  0.93724165     0.28400
H507        H  0.37707718  0.42217924  0.91681386     0.19000
H508        H  0.34351337  0.29990193  0.78552969     0.19000
C509        C  0.17577058  0.04659513  0.64282271    -0.06800
C510        C  0.18515186  0.02161450  0.60446668    -0.17900
C511        C  0.16824831  0.47651614  0.60911743     0.10400
C512        C  0.12701950  0.44824204  0.64000623    -0.06700
C513        C  0.11670689  0.47119655  0.68158855    -0.18000
C514        C  0.14173874  0.01937472  0.68593217     0.10400
S515        S  0.19963188  0.45746307  0.56859713    -0.32900
S516        S  0.11766554  0.04107402  0.73634858    -0.32900
H517        H  0.15723772  0.08075536  0.74924410     0.28400
H518        H  0.24269329  0.49533465  0.57591942     0.28400
H519        H  0.20415414  0.03514535  0.56646387     0.19000
H520        H  0.09363863  0.45177062  0.71579456     0.19000
C521        C  0.22158951  0.11918214  0.57263130    -0.06800
C522        C  0.20899988  0.14639611  0.54586434    -0.17900
C523        C  0.19899406  0.14054361  0.98718888     0.10400
C524        C  0.21737483  0.12149403  0.94817056    -0.06700
C525        C  0.24664797  0.11052555  0.97518136    -0.18000
C526        C  0.24933883  0.11019816  0.53618208     0.10400
S527        S  0.14997791  0.14296291  0.97884076    -0.32900
S528        S  0.28475976  0.09394988  0.56786202    -0.32900
H529        H  0.28655034  0.07017539  0.52061485     0.28400
H530        H  0.17074971  0.18767695  0.99675468     0.28400
H531        H  0.19813637  0.16520199  0.57116901     0.19000
H532        H  0.26357876  0.09778141  0.94947903     0.19000
C533        C  0.16912394  0.11642980  0.65328355    -0.06800
C534        C  0.18252931  0.15336443  0.68845685    -0.17900
C535        C  0.16374165  0.18056902  0.68710673     0.10400
C536        C  0.12255618  0.16609616  0.65765507    -0.06700
C537        C  0.10334320  0.12198059  0.63900961    -0.18000
C538        C  0.12576335  0.09883613  0.63095861     0.10400
S539        S  0.19809454  0.23214357  0.72298907    -0.32900
S540        S  0.09385839  0.04461742  0.59840827    -0.32900
H541        H  0.05007776  0.03684943  0.60694303     0.28400
H542        H  0.22851574  0.22447906  0.75112281     0.28400
H543        H  0.20921895  0.16245335  0.71641939     0.19000
H544        H  0.06851163  0.10286110  0.63528974     0.19000
O545        O  0.23056689  0.83862461  0.31515631    -0.86000
O546        O  0.15092182  0.75617537  0.30141934    -0.83100
C547        C  0.12240012  0.75142179  0.33924661     0.97400
O548        O  0.10381881  0.77445106  0.33321224    -0.83100
O549        O  0.10051735  0.85045097  0.30177887    -0.85700
C550        C  0.12703075  0.88313963  0.33208226     1.02000
O551        O  0.16926125  0.90034790  0.32131113    -0.78500
O552        O  0.25285886  0.90595728  0.28505020    -0.78700
C553        C  0.25931764  0.88066785  0.31677456     1.01900
O554        O  0.24166663  0.84555583  0.19060948    -0.86000
O555        O  0.15799160  0.76892916  0.17587256    -0.83100
C556        C  0.11644095  0.73839449  0.17891663     0.97500
O557        O  0.09177702  0.74580870  0.21344010    -0.83100
O558        O  0.09890597  0.83149190  0.18371188    -0.85700
C559        C  0.11718218  0.87351871  0.17314208     1.01900
O560        O  0.15162683  0.90014121  0.19994759    -0.78500
O561        O  0.22854404  0.89702636  0.16642300    -0.78700
C562        C  0.24962801  0.87646093  0.15665450     1.01900
Cr563      Cr  0.19287391  0.80496220  0.24607960     1.93700
Cr564      Cr  0.10450535  0.80351165  0.25682381     1.93200
Cr565      Cr  0.19717688  0.89500750  0.24402648     1.39100
O566        O  0.16486834  0.83472391  0.24876607    -1.23800
C567        C  0.20358439  0.60119758  0.13984031    -0.03200
C568        C  0.40481185  0.80313225  0.36663677    -0.03200
C569        C  0.20228158  0.60742405  0.38569665    -0.03200
C570        C  0.10579321  0.90517204  0.37289491    -0.03200
C571        C  0.09703542  0.89470549  0.13270945    -0.03200
C572        C  0.39626719  0.79681168  0.12669412    -0.03200
C573        C  0.28958001  0.89187124  0.10965613    -0.03200
C574        C  0.10430913  0.71031817  0.38231995    -0.03200
C575        C  0.40366414  0.61106279  0.37278464    -0.03200
C576        C  0.30119959  0.90143530  0.35748251    -0.03200
C577        C  0.39156918  0.59493317  0.12752883    -0.03200
C578        C  0.09636012  0.69180058  0.14409822    -0.03200
O579        O  0.25149327  0.65486150  0.30553110    -0.86000
O580        O  0.33739739  0.73308529  0.32622964    -0.83100
C581        C  0.38029569  0.75937650  0.32709872     0.97400
O582        O  0.40405177  0.75235025  0.29077317    -0.83100
O583        O  0.40199301  0.67192344  0.31692219    -0.85700
C584        C  0.38228066  0.63056967  0.33177204     1.02000
O585        O  0.34650808  0.60314925  0.30741847    -0.78500
O586        O  0.26911016  0.60782874  0.33641415    -0.78700
C587        C  0.24500205  0.62569644  0.34213091     1.01900
O588        O  0.27071338  0.66385319  0.18572461    -0.86000
O589        O  0.34838188  0.75086789  0.20766988    -0.83100
C590        C  0.37555788  0.75462135  0.16828588     0.97500
O591        O  0.38984417  0.72758248  0.16992763    -0.83100
O592        O  0.39653368  0.65277551  0.19395762    -0.85700
C593        C  0.37011278  0.61660014  0.16928155     1.01900
O594        O  0.32850604  0.59633662  0.18581049    -0.78500
O595        O  0.24886129  0.59615819  0.21466445    -0.78700
C596        C  0.24416258  0.62173307  0.18139093     1.01900
Cr597      Cr  0.30450440  0.69740311  0.25599151     1.93700
Cr598      Cr  0.39265536  0.69817362  0.24389864     1.93200
Cr599      Cr  0.30140764  0.60686902  0.26064853     1.39100
O600        O  0.33296584  0.66720313  0.25411468    -1.23800
C601        C  0.44444236  0.61791060  0.14285000    -0.06800
C602        C  0.46494976  0.59778416  0.17219556    -0.17900
C603        C  0.01059430  0.61856838  0.17899570     0.10400
C604        C  0.04190381  0.66331010  0.15507900    -0.06700
C605        C  0.02022391  0.68301432  0.12975384    -0.18000
C606        C  0.47582682  0.66344046  0.12567008     0.10400
S607        S  0.02432417  0.58823406  0.22875745    -0.32900
S608        S  0.45815843  0.69919677  0.09937012    -0.32900
H609        H  0.46227342  0.71792859  0.15332663     0.28400
H610        H  0.06704975  0.62333189  0.24229855     0.28400
H611        H  0.44342471  0.56449037  0.19036105     0.19000
H612        H  0.04116240  0.71592727  0.11075429     0.19000
C613        C  0.39480830  0.60911410  0.43904734    -0.06800
C614        C  0.41415004  0.58796210  0.46704497    -0.17900
C615        C  0.41651343  0.58660789  0.02518428     0.10400
C616        C  0.39770072  0.60613188  0.06165686    -0.06700
C617        C  0.38339133  0.63227450  0.03394350    -0.18000
C618        C  0.38018208  0.63273241  0.47439796     0.10400
S619        S  0.43752693  0.55087732  0.04438512    -0.32900
S620        S  0.36305619  0.66937242  0.44758662    -0.32900
H621        H  0.33473653  0.64018756  0.40709984     0.28400
H622        H  0.42409577  0.53881069  0.10042715     0.28400
H623        H  0.42993349  0.57325189  0.44211780     0.19000
H624        H  0.37500553  0.65295706  0.05938697     0.19000
C625        C  0.37968518  0.55799422  0.36076695    -0.06800
C626        C  0.40264658  0.53623243  0.34127884    -0.17900
C627        C  0.37751332  0.98560823  0.33117193     0.10400
C628        C  0.33086517  0.95616079  0.35050124    -0.06700
C629        C  0.30920552  0.97976236  0.36279178    -0.18000
C630        C  0.33235411  0.52820285  0.37332000     0.10400
S631        S  0.40583454  0.96548548  0.28498081    -0.32900
S632        S  0.29629123  0.54648186  0.40447484    -0.32900
H633        H  0.25535728  0.51279986  0.38288729     0.28400
H634        H  0.44079619  0.00740313  0.26419426     0.28400
H635        H  0.43813928  0.55683162  0.32972725     0.19000
H636        H  0.27401886  0.96259161  0.35833751     0.19000
C637        C  0.10292557  0.69904808  0.07505731    -0.06800
C638        C  0.13194390  0.74132103  0.04735370    -0.17900
C639        C  0.13563290  0.74801163  0.48680864     0.10400
C640        C  0.10925626  0.71239776  0.44979290    -0.06700
C641        C  0.08127961  0.67120412  0.47752005    -0.18000
C642        C  0.07795896  0.66392001  0.03526810     0.10400
S643        S  0.17323406  0.80254955  0.45884107    -0.32900
S644        S  0.03588983  0.60729704  0.05068700    -0.32900
H645        H  0.05001002  0.58735766  0.00932765     0.28400
H646        H  0.14300236  0.80215873  0.42197449     0.28400
H647        H  0.15121846  0.76984071  0.07327624     0.19000
H648        H  0.06008930  0.64276341  0.45156381     0.19000
C649        C  0.45776738  0.64200698  0.36711455    -0.06800
C650        C  0.48087405  0.67401092  0.40959096    -0.17900
C651        C  0.02528454  0.69852984  0.41145806     0.10400
C652        C  0.05191014  0.68728196  0.37551537    -0.06700
C653        C  0.03015597  0.66288898  0.32741830    -0.18000
C654        C  0.48639290  0.64851430  0.31915256     0.10400
S655        S  0.04886761  0.74861453  0.45389800    -0.32900
S656        S  0.47755434  0.67227997  0.25898751    -0.32900
H657        H  0.43709230  0.63223346  0.25348805     0.28400
H658        H  0.01253897  0.73316998  0.49356668     0.28400
H659        H  0.46290873  0.68216295  0.44074784     0.19000
H660        H  0.05134122  0.66676725  0.29073240     0.19000
C661        C  0.31733607  0.94435032  0.11405171    -0.06800
C662        C  0.32798316  0.96434607  0.16811557    -0.17900
C663        C  0.34943890  0.51117499  0.17327335     0.10400
C664        C  0.35784499  0.54098300  0.12791884    -0.06700
C665        C  0.33462782  0.51809866  0.07836113    -0.18000
C666        C  0.32704117  0.97435883  0.06816520     0.10400
S667        S  0.34060333  0.52591448  0.24121936    -0.32900
S668        S  0.34851922  0.96962019  0.99918165    -0.32900
H669        H  0.35452242  0.93431436  0.01424971     0.28400
H670        H  0.38339095  0.56416096  0.24086861     0.28400
H671        H  0.31973843  0.94322783  0.20564600     0.19000
H672        H  0.33071255  0.53556422  0.04340849     0.19000
C673        C  0.28094318  0.88691490  0.42218650    -0.06800
C674        C  0.28677913  0.85490811  0.45126377    -0.17900
C675        C  0.27552133  0.84518976  0.01323738     0.10400
C676        C  0.26949885  0.87537341  0.04839046    -0.06700
C677        C  0.25171089  0.89731636  0.01948239    -0.18000
C678        C  0.25537677  0.90116527  0.45672654     0.10400
S679        S  0.25067091  0.78630663  0.02888370    -0.32900
S680        S  0.21787617  0.91675897  0.43125449    -0.32900
H681        H  0.20179049  0.88152992  0.39304241     0.28400
H682        H  0.21968792  0.78507964  0.06920711     0.28400
H683        H  0.29353319  0.83231454  0.42761200     0.19000
H684        H  0.23923338  0.91462437  0.04408262     0.19000
C685        C  0.32102660  0.87173473  0.12165756    -0.06800
C686        C  0.29943123  0.82556179  0.13223244    -0.17900
C687        C  0.32040735  0.80051271  0.13445129     0.10400
C688        C  0.36853674  0.82173377  0.12967011    -0.06700
C689        C  0.39026552  0.86752833  0.11332727    -0.18000
C690        C  0.36911951  0.89319158  0.11377776     0.10400
S691        S  0.27804768  0.74171273  0.13759136    -0.32900
S692        S  0.40698681  0.95304158  0.10812498    -0.32900
H693        H  0.44835154  0.95505605  0.10066934     0.28400
H694        H  0.30367210  0.72317654  0.12696904     0.28400
H695        H  0.26348954  0.80671387  0.13784305     0.19000
H696        H  0.42546262  0.88461659  0.10203307     0.19000
C697        C  0.04398486  0.86903504  0.14766841    -0.06800
C698        C  0.01869707  0.88819527  0.16933126    -0.17900
C699        C  0.47313375  0.86644002  0.17354981     0.10400
C700        C  0.44691677  0.82317704  0.14840864    -0.06700
C701        C  0.47183858  0.80308106  0.13329708    -0.18000
C702        C  0.01689052  0.82322712  0.13282454     0.10400
S703        S  0.44944511  0.89478830  0.21136370    -0.32900
S704        S  0.03863142  0.79254699  0.09855163    -0.32900
H705        H  0.03213852  0.76894685  0.14969051     0.28400
H706        H  0.40946799  0.85479439  0.22624678     0.28400
H707        H  0.03403528  0.92298074  0.17840619     0.19000
H708        H  0.45473982  0.77216409  0.11092729     0.19000
C709        C  0.09849949  0.89333367  0.44028930    -0.06800
C710        C  0.11514251  0.86968640  0.46893299    -0.17900
C711        C  0.11653757  0.86884336  0.02952712     0.10400
C712        C  0.09963903  0.89096569  0.06467905    -0.06700
C713        C  0.08356908  0.91412229  0.03464579    -0.18000
C714        C  0.07925491  0.91262928  0.47723843     0.10400
S715        S  0.14141011  0.84001047  0.05913127    -0.32900
S716        S  0.05276897  0.94176548  0.45107391    -0.32900
H717        H  0.04800078  0.96071037  0.50165806     0.28400
H718        H  0.16853079  0.87201142  0.09747338     0.28400
H719        H  0.12772602  0.85278557  0.44347176     0.19000
H720        H  0.07208714  0.93282515  0.05919713     0.19000
C721        C  0.17325603  0.62929147  0.36689902    -0.06800
C722        C  0.19678116  0.67638711  0.36607346    -0.17900
C723        C  0.17629735  0.70219109  0.36743976     0.10400
C724        C  0.12841364  0.68247724  0.36511586    -0.06700
C725        C  0.10441889  0.63530005  0.35814898    -0.18000
C726        C  0.12521440  0.60879333  0.36107011     0.10400
S727        S  0.21458336  0.76039512  0.37978912    -0.32900
S728        S  0.08678210  0.55018818  0.37352495    -0.32900
H729        H  0.05096474  0.54713904  0.34366668     0.28400
H730        H  0.25439522  0.76344473  0.35840109     0.28400
H731        H  0.23230420  0.69361546  0.37272009     0.19000
H732        H  0.06811632  0.61795312  0.35831849     0.19000
C733        C  0.17684028  0.55483755  0.37980364    -0.06800
C734        C  0.17329200  0.53547876  0.32585029    -0.17900
C735        C  0.15886830  0.98857337  0.32135950     0.10400
C736        C  0.13984474  0.95916417  0.36981321    -0.06700
C737        C  0.15747224  0.98344383  0.42024250    -0.18000
C738        C  0.16718279  0.52501733  0.42588051     0.10400
S739        S  0.18680161  0.97758716  0.26404542    -0.32900
S740        S  0.14882023  0.53088250  0.49474454    -0.32900
H741        H  0.12516794  0.55017209  0.47474114     0.28400
H742        H  0.22817508  0.01862763  0.26532930     0.28400
H743        H  0.18809303  0.55719681  0.28921964     0.19000
H744        H  0.15986366  0.96801438  0.45843951     0.19000
C745        C  0.39988637  0.79184985  0.43306165    -0.06800
C746        C  0.43739339  0.81887761  0.46550426    -0.17900
C747        C  0.43558763  0.81664742  0.02411179     0.10400
C748        C  0.39727223  0.78823350  0.05962655    -0.06700
C749        C  0.35854734  0.75977308  0.02764938    -0.18000
C750        C  0.36029126  0.76206240  0.46652569     0.10400
S751        S  0.48135790  0.86981790  0.04292426    -0.30900
S752        S  0.30575389  0.73286047  0.43718681    -0.32900
H753        H  0.28097514  0.72192456  0.48917473     0.28400
H754        H  0.50750960  0.85066208  0.03093070     0.28400
H755        H  0.46882066  0.84428696  0.44582190     0.19000
H756        H  0.32727015  0.73626110  0.04760763     0.19000
C757        C  0.45754744  0.82780160  0.34880157    -0.06800
C758        C  0.48285435  0.87277043  0.33000349    -0.17900
C759        C  0.02695011  0.89824605  0.33361939     0.10400
C760        C  0.05350913  0.88106242  0.35509710    -0.06700
C761        C  0.02777243  0.83397239  0.36580931    -0.18000
C762        C  0.48386758  0.80877542  0.36214579     0.10400
S763        S  0.04767614  0.95370082  0.30847178    -0.32900
S764        S  0.45865386  0.75216450  0.38710736    -0.32900
H765        H  0.47944508  0.76472987  0.43963376     0.28400
H766        H  0.08055307  0.97457297  0.34729487     0.28400
H767        H  0.46515365  0.88922839  0.31897852     0.19000
H768        H  0.04465679  0.81763016  0.38164283     0.19000
C769        C  0.33422996  0.88192835  0.34769372    -0.06800
C770        C  0.37051111  0.89669648  0.38437591    -0.17900
C771        C  0.39553809  0.87522518  0.39017037     0.10400
C772        C  0.38512447  0.83554265  0.35865361    -0.06700
C773        C  0.35368106  0.82538120  0.31737604    -0.18000
C774        C  0.32857938  0.84634063  0.31220124     0.10400
S775        S  0.44334063  0.90528641  0.43331292    -0.32900
S776        S  0.29182725  0.82583657  0.25652923    -0.32900
H777        H  0.28742685  0.78370029  0.25139541     0.28400
H778        H  0.42209675  0.91837268  0.47444009     0.28400
H779        H  0.37861694  0.92527275  0.41053543     0.19000
H780        H  0.34942062  0.80131422  0.28607041     0.19000
C781        C  0.17666052  0.54783912  0.14810759    -0.06800
C782        C  0.19585068  0.52431088  0.12581005    -0.17900
C783        C  0.16628851  0.97576565  0.10988276     0.10400
C784        C  0.12599518  0.94783898  0.14231418    -0.06700
C785        C  0.11634761  0.97139018  0.18371372    -0.18000
C786        C  0.13590429  0.51959507  0.18174488     0.10400
S787        S  0.19885752  0.95678577  0.07241904    -0.32900
S788        S  0.10890086  0.53951420  0.23046181    -0.32900
H789        H  0.14742233  0.57746609  0.24946677     0.28400
H790        H  0.24120400  0.99531349  0.08069438     0.28400
H791        H  0.23105138  0.54010727  0.12229446     0.19000
H792        H  0.09380159  0.95245768  0.21854304     0.19000
C793        C  0.22110503  0.61799161  0.07458301    -0.06800
C794        C  0.20889171  0.64536886  0.04689844    -0.17900
C795        C  0.19822974  0.64001899  0.48967153     0.10400
C796        C  0.21719837  0.62167710  0.45052044    -0.06700
C797        C  0.24755407  0.61198267  0.47706641    -0.18000
C798        C  0.24756458  0.60758061  0.03747372     0.10400
S799        S  0.14823199  0.64068745  0.48185774    -0.32900
S800        S  0.28944890  0.60022571  0.06564999    -0.32900
H801        H  0.28972752  0.57339545  0.02128096     0.28400
H802        H  0.16844881  0.68559772  0.49888439     0.28400
H803        H  0.19889849  0.66523950  0.07143336     0.19000
H804        H  0.26523958  0.60013938  0.45119591     0.19000
C805        C  0.16988093  0.61751966  0.15485775    -0.06800
C806        C  0.18148652  0.65285231  0.19195294    -0.17900
C807        C  0.16184860  0.67936065  0.19098746     0.10400
C808        C  0.12158630  0.66558967  0.15996551    -0.06700
C809        C  0.10387438  0.62245787  0.13867194    -0.18000
C810        C  0.12771579  0.60094856  0.12931415     0.10400
S811        S  0.19453418  0.72986626  0.22833343    -0.32900
S812        S  0.09937071  0.55042561  0.08865513    -0.32900
H813        H  0.05474373  0.53666053  0.10592225     0.28400
H814        H  0.21981101  0.71889204  0.26231626     0.28400
H815        H  0.20772919  0.66148911  0.22058788     0.19000
H816        H  0.06928095  0.60256024  0.13381661     0.19000
O817        O  0.23606672  0.83818370  0.81296271    -0.86000
O818        O  0.15358247  0.75637950  0.80147515    -0.83100
C819        C  0.12453625  0.75147073  0.83881706     0.97400
O820        O  0.10601056  0.77451793  0.83266970    -0.83100
O821        O  0.10204513  0.85000137  0.80108902    -0.85700
C822        C  0.12816029  0.88245172  0.83178043     1.02000
O823        O  0.17046128  0.89957805  0.82178590    -0.78500
O824        O  0.25434453  0.90577611  0.78807394    -0.78700
C825        C  0.26190324  0.88063928  0.81866212     1.01900
O826        O  0.24360220  0.84413239  0.68882084    -0.86000
O827        O  0.15960380  0.76875157  0.67578978    -0.83100
C828        C  0.11809786  0.73836708  0.67912206     0.97500
O829        O  0.09369087  0.74576142  0.71384998    -0.83100
O830        O  0.10142428  0.83146768  0.68339975    -0.85700
C831        C  0.11958219  0.87353241  0.67330068     1.01900
O832        O  0.15414425  0.90002836  0.70009385    -0.78500
O833        O  0.23125794  0.89693539  0.66753815    -0.78700
C834        C  0.25127481  0.87554153  0.65562316     1.01900
Cr835      Cr  0.19557930  0.80458759  0.74536554     1.93700
Cr836      Cr  0.10686696  0.80349976  0.75658202     1.93200
Cr837      Cr  0.19938805  0.89473812  0.74501351     1.39100
O838        O  0.16747458  0.83457754  0.74920335    -1.23800
C839        C  0.20370198  0.60089452  0.63855922    -0.03200
C840        C  0.40290791  0.80068786  0.86756946    -0.03200
C841        C  0.20244710  0.60652955  0.88540467    -0.03200
C842        C  0.10655589  0.90448796  0.87179473    -0.03200
C843        C  0.09918392  0.89484031  0.63342516    -0.03200
C844        C  0.39651186  0.79576386  0.62567656    -0.03200
C845        C  0.29029650  0.89100347  0.60707845    -0.03200
C846        C  0.10571701  0.71022506  0.88162051    -0.03200
C847        C  0.40353009  0.61044426  0.87287220    -0.03200
C848        C  0.30251668  0.90211016  0.86228039    -0.03200
C849        C  0.39189390  0.59416945  0.62762659    -0.03200
C850        C  0.09781656  0.69191925  0.64455938    -0.03200
O851        O  0.25088868  0.65310452  0.80393911    -0.86000
O852        O  0.33584800  0.73158633  0.82544522    -0.83100
C853        C  0.37864896  0.75794226  0.82661883     0.97400
O854        O  0.40267975  0.75134198  0.79013614    -0.83100
O855        O  0.40160580  0.67098740  0.81646868    -0.85700
C856        C  0.38209244  0.62969763  0.83144615     1.02000
O857        O  0.34638361  0.60216979  0.80708564    -0.78500
O858        O  0.26946073  0.60725345  0.83605013    -0.78700
C859        C  0.24513834  0.62486427  0.84155659     1.01900
O860        O  0.27096668  0.66289846  0.68415436    -0.86000
O861        O  0.34773446  0.74945575  0.70595616    -0.83100
C862        C  0.37549047  0.75345746  0.66705764     0.97500
O863        O  0.39016680  0.72677002  0.66922683    -0.83100
O864        O  0.39671471  0.65200358  0.69394638    -0.85700
C865        C  0.37037979  0.61573883  0.66933694     1.01900
O866        O  0.32871331  0.59536594  0.68564123    -0.78500
O867        O  0.24866019  0.59500210  0.71350043    -0.78700
C868        C  0.24411473  0.62074564  0.68019682     1.01900
Cr869      Cr  0.30392272  0.69609390  0.75467081     1.93700
Cr870      Cr  0.39238537  0.69733038  0.74345700     1.93200
Cr871      Cr  0.30132831  0.60586814  0.76007781     1.39100
O872        O  0.33269403  0.66615516  0.75318419    -1.23800
C873        C  0.44476578  0.61705361  0.64295858    -0.06800
C874        C  0.46544292  0.59681382  0.67182011    -0.17900
C875        C  0.01177371  0.61892555  0.67936556     0.10400
C876        C  0.04324639  0.66359327  0.65537893    -0.06700
C877        C  0.02160384  0.68323143  0.62955394    -0.18000
C878        C  0.47601647  0.66267649  0.62620309     0.10400
S879        S  0.02475549  0.58902474  0.73092072    -0.32900
S880        S  0.45812771  0.69841366  0.60044046    -0.32900
H881        H  0.46373754  0.71835493  0.65386853     0.28400
H882        H  0.06798403  0.62378432  0.74337001     0.28400
H883        H  0.44409253  0.56334838  0.68959808     0.19000
H884        H  0.04259556  0.71608517  0.61043529     0.19000
C885        C  0.39486256  0.60922849  0.93903370    -0.06800
C886        C  0.41426814  0.58831007  0.96741423    -0.17900
C887        C  0.41639504  0.58592185  0.52483454     0.10400
C888        C  0.39778087  0.60544185  0.56172612    -0.06700
C889        C  0.38301136  0.63137148  0.53439429    -0.18000
C890        C  0.38050894  0.63332864  0.97394206     0.10400
S891        S  0.43683303  0.54955936  0.54342561    -0.32900
S892        S  0.36330972  0.66989995  0.94675714    -0.32900
H893        H  0.33478617  0.64028722  0.90672204     0.28400
H894        H  0.42445816  0.53838932  0.59982387     0.28400
H895        H  0.43009833  0.57349424  0.94281201     0.19000
H896        H  0.37447438  0.65182456  0.56006427     0.19000
C897        C  0.37946785  0.55719718  0.86157795    -0.06800
C898        C  0.40244078  0.53524497  0.84294199    -0.17900
C899        C  0.38134035  0.98677237  0.84727242     0.10400
C900        C  0.33273135  0.95695663  0.85640161    -0.06700
C901        C  0.31005850  0.98049881  0.86158267    -0.18000
C902        C  0.33208255  0.52750401  0.87368964     0.10400
S903        S  0.41746157  0.96896917  0.81448500    -0.32900
S904        S  0.29628936  0.54607898  0.90481605    -0.32900
H905        H  0.25505061  0.51178844  0.88481019     0.28400
H906        H  0.45898714  0.00574804  0.83027684     0.28400
H907        H  0.43805390  0.55577126  0.83216011     0.19000
H908        H  0.27492441  0.96285954  0.85555280     0.19000
C909        C  0.10404116  0.69885667  0.57551721    -0.06800
C910        C  0.13241056  0.74122861  0.54772799    -0.17900
C911        C  0.13616310  0.74805084  0.98632468     0.10400
C912        C  0.11047648  0.71232332  0.94909851    -0.06700
C913        C  0.08212752  0.67120034  0.97673271    -0.18000
C914        C  0.07859804  0.66360037  0.53592773     0.10400
S915        S  0.17362815  0.80271535  0.95845475    -0.32900
S916        S  0.03880993  0.60607869  0.55152224    -0.32900
H917        H  0.05071964  0.58709678  0.50639199     0.28400
H918        H  0.14332678  0.80228325  0.92168818     0.28400
H919        H  0.15223448  0.76977205  0.57347715     0.19000
H920        H  0.06130726  0.64269110  0.95066005     0.19000
C921        C  0.45767504  0.64119947  0.86712929    -0.06800
C922        C  0.48097798  0.67391591  0.90886560    -0.17900
C923        C  0.02676084  0.69862680  0.91100772     0.10400
C924        C  0.05339846  0.68771431  0.87462004    -0.06700
C925        C  0.03167065  0.66398283  0.82620577    -0.18000
C926        C  0.48617141  0.64665008  0.81952582     0.10400
S927        S  0.04976372  0.74825292  0.95395751    -0.32900
S928        S  0.47834600  0.67127488  0.75939500    -0.32900
H929        H  0.43743469  0.63187434  0.75342802     0.28400
H930        H  0.01813645  0.72730573  0.99937741     0.28400
H931        H  0.46302266  0.68254655  0.93935310     0.19000
H932        H  0.05289625  0.66858402  0.78926349     0.19000
C933        C  0.31778100  0.94366968  0.61136609    -0.06800
C934        C  0.33000129  0.96419488  0.66514134    -0.17900
C935        C  0.34967930  0.51050971  0.67356831     0.10400
C936        C  0.35816345  0.54030343  0.62816463    -0.06700
C937        C  0.33472120  0.51749143  0.57876933    -0.18000
C938        C  0.32688702  0.97356629  0.56546802     0.10400
S939        S  0.34220016  0.52580995  0.74170302    -0.32900
S940        S  0.34867490  0.96899557  0.49650684    -0.32900
H941        H  0.35615939  0.93461635  0.51163866     0.28400
H942        H  0.38535931  0.56347243  0.74080941     0.28400
H943        H  0.32425830  0.94366443  0.70256087     0.19000
H944        H  0.33075468  0.53497095  0.54387344     0.19000
C945        C  0.28002428  0.88678289  0.92568621    -0.06800
C946        C  0.28314047  0.85308075  0.95472492    -0.17900
C947        C  0.27803763  0.84574181  0.50952800     0.10400
C948        C  0.27027688  0.87450718  0.54553243    -0.06700
C949        C  0.25203658  0.89606487  0.51685203    -0.18000
C950        C  0.25549584  0.90242111  0.95941498     0.10400
S951        S  0.25320113  0.78644383  0.52245936    -0.32900
S952        S  0.21959459  0.91940554  0.93236010    -0.32900
H953        H  0.20355308  0.88374873  0.89477054     0.28400
H954        H  0.22066413  0.78358623  0.56147640     0.28400
H955        H  0.28843446  0.82954209  0.93100986     0.19000
H956        H  0.23901265  0.91280911  0.54172877     0.19000
C957        C  0.32133326  0.87043836  0.61798604    -0.06800
C958        C  0.29938545  0.82388243  0.62765541    -0.17900
C959        C  0.32054656  0.79898623  0.63021889     0.10400
C960        C  0.36874764  0.82066301  0.62932024    -0.06700
C961        C  0.39088876  0.86723866  0.61732690    -0.18000
C962        C  0.36950648  0.89236125  0.61383399     0.10400
S963        S  0.27891085  0.74000366  0.62913550    -0.32900
S964        S  0.40735252  0.95219213  0.60798035    -0.32900
H965        H  0.44666944  0.95338842  0.58809350     0.28400
H966        H  0.30505313  0.72186417  0.62138716     0.28400
H967        H  0.26330928  0.80493936  0.63203818     0.19000
H968        H  0.42652865  0.88565056  0.61215111     0.19000
C969        C  0.04606538  0.86909861  0.64863960    -0.06800
C970        C  0.02092453  0.88820259  0.67095009    -0.17900
C971        C  0.47242125  0.86231400  0.67537551     0.10400
C972        C  0.44695562  0.82093251  0.64649772    -0.06700
C973        C  0.47193156  0.80178598  0.62768749    -0.18000
C974        C  0.01872586  0.82346945  0.63299660     0.10400
S975        S  0.44724873  0.88699463  0.71795317    -0.32900
S976        S  0.04032457  0.79269080  0.59867117    -0.32900
H977        H  0.03377235  0.76909122  0.64982383     0.28400
H978        H  0.40826843  0.84537972  0.72988196     0.28400
H979        H  0.03664230  0.92278034  0.68143317     0.19000
H980        H  0.45476064  0.77144501  0.60399396     0.19000
C981        C  0.09842131  0.89281881  0.93923332    -0.06800
C982        C  0.11480037  0.86930908  0.96861399    -0.17900
C983        C  0.11788142  0.86944879  0.52975941     0.10400
C984        C  0.10118021  0.89134796  0.56545100    -0.06700
C985        C  0.08435060  0.91419587  0.53625124    -0.18000
C986        C  0.07908686  0.91247151  0.97547832     0.10400
S987        S  0.14320709  0.84087843  0.55895886    -0.32900
S988        S  0.05323163  0.94191184  0.94835338    -0.32900
H989        H  0.04728444  0.96031814  0.99873007     0.28400
H990        H  0.17081655  0.87295360  0.59703000     0.28400
H991        H  0.12819844  0.85287572  0.94368530     0.19000
H992        H  0.07279882  0.93258696  0.56137093     0.19000
C993        C  0.17340632  0.62825612  0.86627483    -0.06800
C994        C  0.19720220  0.67541714  0.86371966    -0.17900
C995        C  0.17696035  0.70135109  0.86558134     0.10400
C996        C  0.12911650  0.68182502  0.86427299    -0.06700
C997        C  0.10470566  0.63449641  0.85827176    -0.18000
C998        C  0.12526557  0.60777457  0.86203874     0.10400
S999        S  0.21552834  0.75913757  0.87980326    -0.32900
S1000       S  0.08729012  0.54947825  0.87797855    -0.32900
H1001       H  0.04830993  0.54593178  0.85660014     0.28400
H1002       H  0.25237661  0.76325765  0.84734215     0.28400
H1003       H  0.23287625  0.69288183  0.86947653     0.19000
H1004       H  0.06841713  0.61748118  0.85886002     0.19000
C1005       C  0.17755650  0.55377449  0.87998609    -0.06800
C1006       C  0.17471552  0.53462122  0.82596247    -0.17900
C1007       C  0.16077837  0.98765888  0.82043157     0.10400
C1008       C  0.14110512  0.95822988  0.86874170    -0.06700
C1009       C  0.15882392  0.98222755  0.91919830    -0.18000
C1010       C  0.16881003  0.52379054  0.92597865     0.10400
S1011       S  0.19097872  0.97776066  0.76481454    -0.32900
S1012       S  0.15263435  0.52890826  0.99671930    -0.32900
H1013       H  0.13001105  0.54984350  0.97832273     0.28400
H1014       H  0.23312961  0.01675032  0.77337521     0.28400
H1015       H  0.19044671  0.55641158  0.78969790     0.19000
H1016       H  0.16092224  0.96650164  0.95731681     0.19000
C1017       C  0.39832777  0.78818451  0.93373137    -0.06800
C1018       C  0.43696801  0.81077669  0.96617755    -0.17900
C1019       C  0.43487610  0.82289705  0.52359794     0.10400
C1020       C  0.39881137  0.78937659  0.55849659    -0.06700
C1021       C  0.36247100  0.75700445  0.52640874    -0.18000
C1022       C  0.35769646  0.76313344  0.96726856     0.10400
S1023       S  0.47908830  0.87600694  0.54543706    -0.30900
S1024       S  0.30389243  0.73835060  0.93590247    -0.32900
H1025       H  0.27700877  0.72474233  0.98625781     0.28400
H1026       H  0.50554292  0.85732861  0.53405999     0.28400
H1027       H  0.46928697  0.83392515  0.94681634     0.19000
H1028       H  0.33469769  0.72797273  0.54605582     0.19000
C1029       C  0.45570102  0.82637218  0.84926887    -0.06800
C1030       C  0.48079939  0.87212311  0.83403154    -0.17900
C1031       C  0.02794383  0.89792169  0.83210525     0.10400
C1032       C  0.05444748  0.88058120  0.85331652    -0.06700
C1033       C  0.02851149  0.83353726  0.86423980    -0.18000
C1034       C  0.48247920  0.80700060  0.85854257     0.10400
S1035       S  0.04851375  0.95316237  0.80643550    -0.32900
S1036       S  0.45810984  0.75000349  0.88099100    -0.32900
H1037       H  0.47798223  0.76134616  0.93411389     0.28400
H1038       H  0.08263937  0.97396044  0.84359522     0.28400
H1039       H  0.46306066  0.88923504  0.82655613     0.19000
H1040       H  0.04529998  0.81705852  0.87995446     0.19000
C1041       C  0.33516812  0.88240707  0.85501934    -0.06800
C1042       C  0.36769229  0.89199131  0.89561222    -0.17900
C1043       C  0.39228891  0.87003385  0.89798004     0.10400
C1044       C  0.38226414  0.83244747  0.86225257    -0.06700
C1045       C  0.35144554  0.82498180  0.82017232    -0.18000
C1046       C  0.33190226  0.85153087  0.81433152     0.10400
S1047       S  0.43976626  0.89733605  0.94198955    -0.32900
S1048       S  0.31904870  0.85752972  0.74581256    -0.32900
H1049       H  0.29266021  0.81077578  0.73984207     0.28400
H1050       H  0.42018379  0.91176301  0.98370281     0.28400
H1051       H  0.37472324  0.91839738  0.92509986     0.19000
H1052       H  0.34553014  0.80130468  0.78717929     0.19000
C1053       C  0.17632306  0.54710366  0.64447759    -0.06800
C1054       C  0.18813310  0.52268789  0.60844119    -0.17900
C1055       C  0.16789354  0.97604170  0.60913367     0.10400
C1056       C  0.12836175  0.94796409  0.64290050    -0.06700
C1057       C  0.11935008  0.97140775  0.68503927    -0.18000
C1058       C  0.13948662  0.51913761  0.68421590     0.10400
S1059       S  0.20096183  0.95756067  0.57172849    -0.32900
S1060       S  0.11393412  0.53984949  0.73408099    -0.32900
H1061       H  0.15255111  0.57917871  0.74983058     0.28400
H1062       H  0.24291930  0.99675501  0.57923244     0.28400
H1063       H  0.21058473  0.53753799  0.57377466     0.19000
H1064       H  0.09744299  0.95236524  0.72026556     0.19000
C1065       C  0.22207327  0.61987393  0.57436244    -0.06800
C1066       C  0.20835968  0.64601052  0.54700483    -0.17900
C1067       C  0.19872018  0.63976788  0.98942338     0.10400
C1068       C  0.21700995  0.62086240  0.95013363    -0.06700
C1069       C  0.24639177  0.61016595  0.97659522    -0.18000
C1070       C  0.25049611  0.61179078  0.53802594     0.10400
S1071       S  0.14984581  0.64239993  0.98130483    -0.32900
S1072       S  0.28864647  0.59950337  0.56990554    -0.32900
H1073       H  0.28993606  0.57418211  0.52414866     0.28400
H1074       H  0.17046021  0.68690248  0.00006163     0.28400
H1075       H  0.19693933  0.66466937  0.57164816     0.19000
H1076       H  0.26458801  0.59909838  0.95032967     0.19000
C1077       C  0.17042371  0.61723135  0.65531071    -0.06800
C1078       C  0.18320178  0.65328280  0.69182646    -0.17900
C1079       C  0.16462886  0.68066427  0.69039469     0.10400
C1080       C  0.12326564  0.66611279  0.66101472    -0.06700
C1081       C  0.10451916  0.62234807  0.64155656    -0.18000
C1082       C  0.12763719  0.60025588  0.63182320     0.10400
S1083       S  0.19919324  0.73203835  0.72671922    -0.32900
S1084       S  0.09756605  0.54862613  0.59359760    -0.32900
H1085       H  0.05422732  0.53439885  0.61704430     0.28400
H1086       H  0.23496383  0.72784042  0.74490793     0.28400
H1087       H  0.20895596  0.66135554  0.72107727     0.19000
H1088       H  0.06983746  0.60268373  0.63753026     0.19000
O1089       O  0.73458379  0.33827528  0.31003548    -0.86000
O1090       O  0.65203284  0.25639172  0.29740200    -0.83100
C1091       C  0.62354384  0.25169373  0.33537741     0.97400
O1092       O  0.60508729  0.27484059  0.32974870    -0.83100
O1093       O  0.60120496  0.35031530  0.29894239    -0.85700
C1094       C  0.62750438  0.38306942  0.32915778     1.02000
O1095       O  0.66981933  0.40080759  0.31825293    -0.78500
O1096       O  0.75338598  0.40598882  0.28518632    -0.78700
C1097       C  0.76078777  0.38065361  0.31568745     1.01900
O1098       O  0.74285781  0.34452327  0.18668105    -0.86000
O1099       O  0.65856085  0.26946524  0.17245558    -0.83100
C1100       C  0.61717479  0.23878711  0.17610727     0.97500
O1101       O  0.59265591  0.24621861  0.21068258    -0.83100
O1102       O  0.59962373  0.33207288  0.18076731    -0.85700
C1103       C  0.61832718  0.37415693  0.17002450     1.01900
O1104       O  0.65334511  0.40041646  0.19632273    -0.78500
O1105       O  0.73058367  0.39714895  0.16473632    -0.78700
C1106       C  0.75086257  0.37593908  0.15353288     1.01900
Cr1107     Cr  0.69433585  0.30493387  0.24224577     1.93700
Cr1108     Cr  0.60571221  0.30394260  0.25374832     1.93200
Cr1109     Cr  0.69853605  0.39523675  0.24177193     1.39100
O1110       O  0.66635979  0.33504943  0.24611338    -1.23800
C1111       C  0.70400061  0.10128560  0.13582668    -0.03200
C1112       C  0.90251403  0.30075247  0.36391725    -0.03200
C1113       C  0.70447617  0.10952576  0.38363968    -0.03200
C1114       C  0.60587553  0.40472017  0.36982750    -0.03200
C1115       C  0.59829029  0.39589220  0.12964073    -0.03200
C1116       C  0.89619953  0.29541124  0.12171043    -0.03200
C1117       C  0.78999658  0.39132629  0.10541194    -0.03200
C1118       C  0.60529628  0.21047886  0.37815889    -0.03200
C1119       C  0.90301049  0.11120143  0.37231915    -0.03200
C1120       C  0.80155350  0.40172245  0.35926637    -0.03200
C1121       C  0.89122284  0.09455814  0.12413032    -0.03200
C1122       C  0.59712683  0.19215357  0.14181073    -0.03200
O1123       O  0.75102382  0.15338190  0.29971137    -0.86000
O1124       O  0.83558409  0.23188497  0.32189983    -0.83100
C1125       C  0.87835329  0.25810684  0.32318877     0.97400
O1126       O  0.90248067  0.25147602  0.28694833    -0.83100
O1127       O  0.90110706  0.17137207  0.31450618    -0.85700
C1128       C  0.88176349  0.13008955  0.32967108     1.02000
O1129       O  0.84685933  0.10237200  0.30407801    -0.78500
O1130       O  0.77112051  0.10958627  0.33425673    -0.78700
C1131       C  0.74654226  0.12695159  0.33906319     1.01900
O1132       O  0.77169251  0.16312438  0.18067913    -0.86000
O1133       O  0.84823760  0.25011865  0.20307493    -0.83100
C1134       C  0.87549353  0.25359922  0.16389603     0.97500
O1135       O  0.88992739  0.22670085  0.16623792    -0.83100
O1136       O  0.89663104  0.15219151  0.19103193    -0.85700
C1137       C  0.87006599  0.11591732  0.16656804     1.01900
O1138       O  0.82849874  0.09529350  0.18354214    -0.78500
O1139       O  0.74863814  0.09556181  0.21159426    -0.78700
C1140       C  0.74436601  0.12109531  0.17754932     1.01900
Cr1141     Cr  0.80416461  0.19650454  0.25114421     1.93700
Cr1142     Cr  0.89239807  0.19756724  0.24065551     1.93200
Cr1143     Cr  0.80162341  0.10647483  0.25785832     1.39100
O1144       O  0.83293497  0.16659693  0.25015470    -1.23800
C1145       C  0.94436420  0.11767972  0.13803517    -0.06800
C1146       C  0.96547481  0.09736109  0.16554452    -0.17900
C1147       C  0.51094956  0.11940240  0.17967780     0.10400
C1148       C  0.54249604  0.16345166  0.15347249    -0.06700
C1149       C  0.52077451  0.18286966  0.12765191    -0.18000
C1150       C  0.97544041  0.16337343  0.12124007     0.10400
S1151       S  0.52531409  0.08957681  0.22943299    -0.32900
S1152       S  0.95765084  0.19860524  0.09350640    -0.32900
H1153       H  0.96112861  0.21710897  0.14744730     0.28400
H1154       H  0.56878764  0.12440432  0.24083435     0.28400
H1155       H  0.94521044  0.06339403  0.18107845     0.19000
H1156       H  0.54161239  0.21550123  0.10777303     0.19000
C1157       C  0.89412870  0.10986331  0.43838273    -0.06800
C1158       C  0.91467250  0.09014210  0.46697023    -0.17900
C1159       C  0.91511799  0.08591432  0.02196216     0.10400
C1160       C  0.89605828  0.10509957  0.05853024    -0.06700
C1161       C  0.88080405  0.13064317  0.03129591    -0.18000
C1162       C  0.87777516  0.13218163  0.47321627     0.10400
S1163       S  0.93745609  0.05119984  0.04060523    -0.32900
S1164       S  0.86125176  0.16898293  0.44555357    -0.32900
H1165       H  0.83371362  0.13977838  0.40460188     0.28400
H1166       H  0.92162471  0.03648640  0.09527000     0.28400
H1167       H  0.93283205  0.07762703  0.44289034     0.19000
H1168       H  0.87168195  0.15066547  0.05702789     0.19000
C1169       C  0.87956491  0.05791608  0.36234569    -0.06800
C1170       C  0.90387738  0.03593685  0.35178226    -0.17900
C1171       C  0.88048038  0.48604451  0.34484797     0.10400
C1172       C  0.83191038  0.45642699  0.35394502    -0.06700
C1173       C  0.80941486  0.48000365  0.35963109    -0.18000
C1174       C  0.83184242  0.02810532  0.37002798     0.10400
S1175       S  0.91547370  0.46794796  0.30913758    -0.32900
S1176       S  0.79474482  0.04598595  0.39852436    -0.32900
H1177       H  0.75486136  0.01263951  0.37444225     0.28400
H1178       H  0.95719649  0.50847119  0.31032828     0.28400
H1179       H  0.93997287  0.05665466  0.34449891     0.19000
H1180       H  0.77440676  0.46271245  0.35266836     0.19000
C1181       C  0.60351072  0.19937192  0.07276659    -0.06800
C1182       C  0.63223739  0.24172274  0.04487517    -0.17900
C1183       C  0.63569943  0.24798714  0.48270574     0.10400
C1184       C  0.61009205  0.21221963  0.44562550    -0.06700
C1185       C  0.58234484  0.17087209  0.47332378    -0.18000
C1186       C  0.57843947  0.16416283  0.03320331     0.10400
S1187       S  0.67278087  0.30263062  0.45424406    -0.32900
S1188       S  0.53780048  0.10712002  0.04910598    -0.32900
H1189       H  0.55215655  0.08808099  0.00674711     0.28400
H1190       H  0.64174560  0.30210577  0.41875021     0.28400
H1191       H  0.65165816  0.27034971  0.07057431     0.19000
H1192       H  0.56119995  0.14245726  0.44740960     0.19000
C1193       C  0.95710364  0.14221094  0.36638479    -0.06800
C1194       C  0.98052250  0.17486753  0.40810856    -0.17900
C1195       C  0.52616064  0.19823922  0.40767664     0.10400
C1196       C  0.55297020  0.18748390  0.37138280    -0.06700
C1197       C  0.53145810  0.16369091  0.32288881    -0.18000
C1198       C  0.98520306  0.14755045  0.31844208     0.10400
S1199       S  0.54904803  0.24778810  0.45090713    -0.32900
S1200       S  0.97262231  0.16488240  0.25571680    -0.32900
H1201       H  0.93307361  0.12303957  0.25288614     0.28400
H1202       H  0.51433097  0.22932819  0.49314378     0.28400
H1203       H  0.96245135  0.18294187  0.43922504     0.19000
H1204       H  0.55307619  0.16892821  0.28613852     0.19000
C1205       C  0.81754555  0.44407059  0.11046042    -0.06800
C1206       C  0.82972558  0.46401610  0.16461383    -0.17900
C1207       C  0.85210575  0.01244261  0.17098612     0.10400
C1208       C  0.85750137  0.04091517  0.12580604    -0.06700
C1209       C  0.83305607  0.01718084  0.07755357    -0.18000
C1210       C  0.82568329  0.47442078  0.06543582     0.10400
S1211       S  0.86627845  0.03485130  0.23802816    -0.32900
S1212       S  0.84683024  0.47112360  0.99551473    -0.32900
H1213       H  0.85222209  0.43503579  0.00805881     0.28400
H1214       H  0.89093456  0.01370184  0.24291295     0.28400
H1215       H  0.82425858  0.44313667  0.20155331     0.19000
H1216       H  0.82879230  0.03413593  0.04229222     0.19000
C1217       C  0.77923473  0.38645068  0.42260388    -0.06800
C1218       C  0.78216494  0.35251873  0.45124580    -0.17900
C1219       C  0.77496383  0.34451954  0.00910387     0.10400
C1220       C  0.76905020  0.37464909  0.04464231    -0.06700
C1221       C  0.75131915  0.39673918  0.01607143    -0.18000
C1222       C  0.75532274  0.40252512  0.45677752     0.10400
S1223       S  0.75034428  0.28553411  0.02384980    -0.32900
S1224       S  0.72015911  0.42086263  0.43081638    -0.32900
H1225       H  0.70379899  0.38609298  0.39189043     0.28400
H1226       H  0.71955679  0.28375479  0.06486503     0.28400
H1227       H  0.78724172  0.32891635  0.42735335     0.19000
H1228       H  0.73890176  0.41406543  0.04066367     0.19000
C1229       C  0.82123647  0.37056991  0.11512966    -0.06800
C1230       C  0.79948426  0.32426099  0.12641421    -0.17900
C1231       C  0.82045146  0.29918580  0.12835456     0.10400
C1232       C  0.86850423  0.32035179  0.12359826    -0.06700
C1233       C  0.89026556  0.36600022  0.10655861    -0.18000
C1234       C  0.86914676  0.39165684  0.10594667     0.10400
S1235       S  0.77846544  0.24041335  0.12957320    -0.32900
S1236       S  0.90683954  0.45118805  0.09735820    -0.32900
H1237       H  0.94785399  0.45293712  0.08694130     0.28400
H1238       H  0.80446760  0.22226282  0.12089379     0.28400
H1239       H  0.76363918  0.30547537  0.13301426     0.19000
H1240       H  0.92550324  0.38303725  0.09572962     0.19000
C1241       C  0.54463828  0.36962487  0.14314339    -0.06800
C1242       C  0.51843444  0.38852019  0.16271216    -0.17900
C1243       C  0.97162257  0.36528048  0.16865675     0.10400
C1244       C  0.94636365  0.32202268  0.14388429    -0.06700
C1245       C  0.97185221  0.30250223  0.12940029    -0.18000
C1246       C  0.51779750  0.32372115  0.12833970     0.10400
S1247       S  0.94680999  0.39224035  0.20741194    -0.32900
S1248       S  0.54011621  0.29379529  0.09337379    -0.32900
H1249       H  0.53429281  0.27009178  0.14413143     0.28400
H1250       H  0.90769039  0.35151301  0.22279429     0.28400
H1251       H  0.53194439  0.42367106  0.16605798     0.19000
H1252       H  0.95516176  0.27157488  0.10711374     0.19000
C1253       C  0.59886293  0.39355806  0.43748043    -0.06800
C1254       C  0.61639148  0.37096568  0.46648179    -0.17900
C1255       C  0.61929472  0.37131160  0.02668615     0.10400
C1256       C  0.60263865  0.39362753  0.06186065    -0.06700
C1257       C  0.58615153  0.41639528  0.03203314    -0.18000
C1258       C  0.58047735  0.41378994  0.47422939     0.10400
S1259       S  0.64305531  0.34130376  0.05601088    -0.32900
S1260       S  0.55336038  0.44210475  0.44789313    -0.32900
H1261       H  0.54923077  0.46198445  0.49795874     0.28400
H1262       H  0.66979374  0.37178734  0.09584701     0.28400
H1263       H  0.62919181  0.35416751  0.44122103     0.19000
H1264       H  0.57432021  0.43475328  0.05667856     0.19000
C1265       C  0.67458133  0.13025447  0.36404284    -0.06800
C1266       C  0.69799528  0.17723028  0.35635069    -0.17900
C1267       C  0.67723337  0.20281609  0.35822987     0.10400
C1268       C  0.62913545  0.18265327  0.36007593    -0.06700
C1269       C  0.60509745  0.13526650  0.35728833    -0.18000
C1270       C  0.62614459  0.10928660  0.36269773     0.10400
S1271       S  0.71549344  0.26044582  0.37340998    -0.32900
S1272       S  0.58815393  0.05055579  0.37561792    -0.32900
H1273       H  0.55093710  0.05265911  0.39699523     0.28400
H1274       H  0.75257555  0.26525982  0.34084852     0.28400
H1275       H  0.73393984  0.19542015  0.36052972     0.19000
H1276       H  0.56878019  0.11782573  0.35753192     0.19000
C1277       C  0.67894991  0.05668800  0.37902823    -0.06800
C1278       C  0.67853639  0.03630794  0.32674530    -0.17900
C1279       C  0.65558942  0.48770779  0.31804681     0.10400
C1280       C  0.63954289  0.45827159  0.36625057    -0.06700
C1281       C  0.66037749  0.48182685  0.41559454    -0.18000
C1282       C  0.66598759  0.02742052  0.42633443     0.10400
S1283       S  0.68312580  0.47748102  0.26014185    -0.32900
S1284       S  0.64502142  0.03538630  0.49238673    -0.32900
H1285       H  0.63118363  0.06361256  0.47191439     0.28400
H1286       H  0.72434318  0.51851263  0.26229483     0.28400
H1287       H  0.69487171  0.05704241  0.28987478     0.19000
H1288       H  0.66434401  0.46564378  0.45198355     0.19000
C1289       C  0.89839102  0.28814872  0.42987348    -0.06800
C1290       C  0.93687815  0.31240871  0.46202094    -0.17900
C1291       C  0.93603680  0.31632452  0.01926801     0.10400
C1292       C  0.89808420  0.28679754  0.05488077    -0.06700
C1293       C  0.85989146  0.25697215  0.02309053    -0.18000
C1294       C  0.85843803  0.26048686  0.46356670     0.10400
S1295       S  0.98229874  0.36911969  0.03831265    -0.30900
S1296       S  0.80402802  0.23420446  0.43391421    -0.32900
H1297       H  0.77999755  0.22731885  0.48583346     0.28400
H1298       H  0.00866859  0.35025474  0.02542906     0.28400
H1299       H  0.96865677  0.33693397  0.44244552     0.19000
H1300       H  0.82989353  0.23069741  0.04288268     0.19000
C1301       C  0.95510632  0.32625663  0.34509028    -0.06800
C1302       C  0.97980906  0.37155792  0.32795938    -0.17900
C1303       C  0.52767767  0.39812780  0.32989361     0.10400
C1304       C  0.55383645  0.38075801  0.35199904    -0.06700
C1305       C  0.52800758  0.33378468  0.36306948    -0.18000
C1306       C  0.98201697  0.30724631  0.35558444     0.10400
S1307       S  0.54835678  0.45370903  0.30575471    -0.32900
S1308       S  0.95775747  0.25035600  0.37869879    -0.32900
H1309       H  0.97716765  0.26218192  0.43205721     0.28400
H1310       H  0.57955754  0.47462747  0.34629437     0.28400
H1311       H  0.96160596  0.38778889  0.31788323     0.19000
H1312       H  0.54478227  0.31741794  0.37921433     0.19000
C1313       C  0.83423357  0.38197567  0.35202428    -0.06800
C1314       C  0.86698780  0.39183427  0.39242973    -0.17900
C1315       C  0.89202800  0.37026863  0.39449246     0.10400
C1316       C  0.88186547  0.33250523  0.35896117    -0.06700
C1317       C  0.85122996  0.32511118  0.31677028    -0.18000
C1318       C  0.83110945  0.35116012  0.31139698     0.10400
S1319       S  0.94050252  0.39856289  0.43693264    -0.32900
S1320       S  0.81720142  0.35641342  0.24343688    -0.32900
H1321       H  0.79146107  0.30958035  0.23794964     0.28400
H1322       H  0.92415414  0.41807386  0.47580182     0.28400
H1323       H  0.87388660  0.41825915  0.42179631     0.19000
H1324       H  0.84601299  0.30196670  0.28330797     0.19000
C1325       C  0.67689239  0.04769363  0.14217173    -0.06800
C1326       C  0.68630262  0.02259889  0.10410141    -0.17900
C1327       C  0.67218911  0.47720715  0.12073926     0.10400
C1328       C  0.62663031  0.44887796  0.14102540    -0.06700
C1329       C  0.61204454  0.47112296  0.17795768    -0.18000
C1330       C  0.64253450  0.02055961  0.18498452     0.10400
S1331       S  0.70421370  0.45812532  0.08294697    -0.32900
S1332       S  0.61917103  0.04262740  0.23597646    -0.32900
H1333       H  0.65899795  0.08220765  0.24833881     0.28400
H1334       H  0.74299435  0.48223378  0.11469384     0.28400
H1335       H  0.70557665  0.03606164  0.06633430     0.19000
H1336       H  0.58774377  0.45171074  0.21084978     0.19000
C1337       C  0.72285858  0.12015501  0.07177098    -0.06800
C1338       C  0.71017028  0.14720033  0.04468423    -0.17900
C1339       C  0.70340243  0.14496133  0.48788865     0.10400
C1340       C  0.72010236  0.12443796  0.44848106    -0.06700
C1341       C  0.74758966  0.11121529  0.47577059    -0.18000
C1342       C  0.75045989  0.11095709  0.03536154     0.10400
S1343       S  0.66580062  0.16341011  0.47605426    -0.32900
S1344       S  0.78577872  0.09460367  0.06704599    -0.32900
H1345       H  0.78687218  0.07024252  0.02005436     0.28400
H1346       H  0.63151772  0.12850182  0.51004253     0.28400
H1347       H  0.69938617  0.16618555  0.06973407     0.19000
H1348       H  0.76383835  0.09776619  0.45002409     0.19000
C1349       C  0.67037339  0.11759899  0.15219900    -0.06800
C1350       C  0.68366108  0.15449625  0.18738272    -0.17900
C1351       C  0.66452733  0.18142097  0.18632002     0.10400
C1352       C  0.62289668  0.16647314  0.15762318    -0.06700
C1353       C  0.60412139  0.12253104  0.13847946    -0.18000
C1354       C  0.62701355  0.09990056  0.12981457     0.10400
S1355       S  0.69862619  0.23300533  0.22234475    -0.32900
S1356       S  0.59579670  0.04618706  0.09600966    -0.32900
H1357       H  0.55183595  0.03803150  0.10386500     0.28400
H1358       H  0.73340584  0.22841581  0.24333993     0.28400
H1359       H  0.71038713  0.16365152  0.21535601     0.19000
H1360       H  0.56933422  0.10313569  0.13477049     0.19000
O1361       O  0.73529621  0.33814331  0.81023634    -0.86000
O1362       O  0.65250530  0.25612546  0.79843228    -0.83100
C1363       C  0.62377685  0.25163642  0.83605427     0.97400
O1364       O  0.60532567  0.27471018  0.82965379    -0.83100
O1365       O  0.60171743  0.35020312  0.79811244    -0.85700
C1366       C  0.62794040  0.38275218  0.82867552     1.02000
O1367       O  0.67023442  0.40010444  0.81841356    -0.78500
O1368       O  0.75391131  0.40578785  0.78506575    -0.78700
C1369       C  0.76144269  0.38061139  0.81561086     1.01900
O1370       O  0.74326800  0.34406655  0.68691233    -0.86000
O1371       O  0.65924477  0.26874657  0.67263820    -0.83100
C1372       C  0.61771606  0.23837504  0.67563753     0.97500
O1373       O  0.59319363  0.24581315  0.71025409    -0.83100
O1374       O  0.60042198  0.33159806  0.68021810    -0.85700
C1375       C  0.61872218  0.37374010  0.67046173     1.01900
O1376       O  0.65342845  0.39987473  0.69733049    -0.78500
O1377       O  0.73089993  0.39674215  0.66513288    -0.78700
C1378       C  0.75129393  0.37565303  0.65399427     1.01900
Cr1379     Cr  0.69486815  0.30444944  0.74263561     1.93700
Cr1380     Cr  0.60621092  0.30357004  0.75336625     1.93200
Cr1381     Cr  0.69890240  0.39475222  0.74204715     1.39100
O1382       O  0.66685369  0.33457156  0.74617909    -1.23800
C1383       C  0.70212538  0.09954201  0.63697092    -0.03200
C1384       C  0.90246811  0.30059895  0.86328175    -0.03200
C1385       C  0.70212716  0.10734877  0.88347935    -0.03200
C1386       C  0.60651555  0.40475661  0.86896635    -0.03200
C1387       C  0.59869137  0.39569538  0.63062177    -0.03200
C1388       C  0.89560297  0.29451167  0.62218961    -0.03200
C1389       C  0.79036450  0.39120302  0.60597121    -0.03200
C1390       C  0.60506435  0.21068204  0.87946510    -0.03200
C1391       C  0.90263240  0.11053098  0.87021725    -0.03200
C1392       C  0.80223220  0.40198117  0.85904042    -0.03200
C1393       C  0.88973561  0.09366231  0.62625880    -0.03200
C1394       C  0.59750965  0.19187712  0.64080668    -0.03200
O1395       O  0.74980635  0.15320107  0.80137431    -0.86000
O1396       O  0.83501320  0.23173838  0.82191948    -0.83100
C1397       C  0.87785203  0.25786447  0.82277841     0.97400
O1398       O  0.90163991  0.25102789  0.78634902    -0.83100
O1399       O  0.90031260  0.17078028  0.81377140    -0.85700
C1400       C  0.88091523  0.12957373  0.82900948     1.02000
O1401       O  0.84502058  0.10200612  0.80516965    -0.78500
O1402       O  0.76888032  0.10797682  0.83433811    -0.78700
C1403       C  0.74440394  0.12539456  0.83938635     1.01900
O1404       O  0.76923211  0.16206770  0.68187681    -0.86000
O1405       O  0.84644507  0.24897083  0.70266399    -0.83100
C1406       C  0.87415859  0.25257482  0.66397517     0.97500
O1407       O  0.88832080  0.22552386  0.66632199    -0.83100
O1408       O  0.89475935  0.15135087  0.69169558    -0.85700
C1409       C  0.86825933  0.11504426  0.66757314     1.01900
O1410       O  0.82667791  0.09466908  0.68406214    -0.78500
O1411       O  0.74709488  0.09445769  0.71221793    -0.78700
C1412       C  0.74246044  0.11984890  0.67851358     1.01900
Cr1413     Cr  0.80263933  0.19586241  0.75177861     1.93700
Cr1414     Cr  0.89087783  0.19675904  0.74062963     1.93200
Cr1415     Cr  0.79990043  0.10564926  0.75840633     1.39100
O1416       O  0.83128289  0.16582816  0.75069807    -1.23800
C1417       C  0.94266459  0.11693598  0.64117225    -0.06800
C1418       C  0.96322414  0.09683503  0.67026725    -0.17900
C1419       C  0.51184521  0.11932887  0.67687558     0.10400
C1420       C  0.54311958  0.16364193  0.65187430    -0.06700
C1421       C  0.52146401  0.18314670  0.62606643    -0.18000
C1422       C  0.97405742  0.16212198  0.62282232     0.10400
S1423       S  0.52521428  0.09064376  0.72976034    -0.32900
S1424       S  0.95638198  0.19763771  0.59570624    -0.32900
H1425       H  0.96034310  0.21631194  0.64966824     0.28400
H1426       H  0.56838486  0.12596115  0.74143877     0.28400
H1427       H  0.94179429  0.06354405  0.68850925     0.19000
H1428       H  0.54233335  0.21596036  0.60670019     0.19000
C1429       C  0.89394993  0.10919530  0.93625494    -0.06800
C1430       C  0.91358740  0.08844904  0.96439903    -0.17900
C1431       C  0.91580518  0.08737720  0.52450857     0.10400
C1432       C  0.89501526  0.10492223  0.56078135    -0.06700
C1433       C  0.87915734  0.12995328  0.53337639    -0.18000
C1434       C  0.87869492  0.13243778  0.97128244     0.10400
S1435       S  0.93975959  0.05418812  0.54378949    -0.32900
S1436       S  0.86239390  0.16962968  0.94411786    -0.32900
H1437       H  0.83361251  0.14020343  0.90415906     0.28400
H1438       H  0.92245743  0.03766381  0.59763639     0.28400
H1439       H  0.93024814  0.07450456  0.93974253     0.19000
H1440       H  0.86926363  0.14941626  0.55903960     0.19000
C1441       C  0.87868467  0.05717420  0.85961920    -0.06800
C1442       C  0.90195827  0.03527652  0.84213224    -0.17900
C1443       C  0.88150505  0.48629928  0.84562745     0.10400
C1444       C  0.83277242  0.45676115  0.85372964    -0.06700
C1445       C  0.81042479  0.48053410  0.85906147    -0.18000
C1446       C  0.83138205  0.02726785  0.87234131     0.10400
S1447       S  0.91708774  0.46854159  0.81088958    -0.32900
S1448       S  0.79508980  0.04573479  0.90204597    -0.32900
H1449       H  0.75411984  0.01126002  0.88154592     0.28400
H1450       H  0.95904172  0.50556511  0.82484524     0.28400
H1451       H  0.93735761  0.05609223  0.83033319     0.19000
H1452       H  0.77541853  0.46333749  0.85200495     0.19000
C1453       C  0.60386389  0.19876133  0.57159217    -0.06800
C1454       C  0.63174252  0.24123446  0.54375751    -0.17900
C1455       C  0.63611020  0.24837803  0.98383492     0.10400
C1456       C  0.61008562  0.21267040  0.94687704    -0.06700
C1457       C  0.58184409  0.17151853  0.97469823    -0.18000
C1458       C  0.57915646  0.16336834  0.53184730     0.10400
S1459       S  0.67341184  0.30287706  0.95534601    -0.32900
S1460       S  0.53905388  0.10596156  0.54741852    -0.32900
H1461       H  0.55131450  0.08688236  0.50272799     0.28400
H1462       H  0.64280029  0.30227894  0.91897195     0.28400
H1463       H  0.65030275  0.26984415  0.56975137     0.19000
H1464       H  0.56069832  0.14298928  0.94885391     0.19000
C1465       C  0.95683250  0.14164433  0.86430380    -0.06800
C1466       C  0.98005203  0.17421138  0.90626337    -0.17900
C1467       C  0.52614105  0.19908502  0.90998937     0.10400
C1468       C  0.55268548  0.18828425  0.87312324    -0.06700
C1469       C  0.53086257  0.16488089  0.82464376    -0.18000
C1470       C  0.98543374  0.14776470  0.81644106     0.10400
S1471       S  0.54959213  0.24873367  0.95322634    -0.32900
S1472       S  0.97778278  0.17305658  0.75673066    -0.32900
H1473       H  0.93693125  0.13368213  0.75067953     0.28400
H1474       H  0.51340486  0.23258625  0.99330063     0.28400
H1475       H  0.96187132  0.18252545  0.93680312     0.19000
H1476       H  0.55198884  0.16977072  0.78749281     0.19000
C1477       C  0.81810803  0.44391560  0.61131957    -0.06800
C1478       C  0.83044692  0.46397989  0.66542003    -0.17900
C1479       C  0.84789847  0.01070072  0.67397406     0.10400
C1480       C  0.85690384  0.03976227  0.62739368    -0.06700
C1481       C  0.83535759  0.01606528  0.57749239    -0.18000
C1482       C  0.82680374  0.47426578  0.56618346     0.10400
S1483       S  0.84151640  0.02712083  0.74169385    -0.32900
S1484       S  0.84838257  0.47058514  0.49674349    -0.32900
H1485       H  0.85400231  0.43478508  0.51039888     0.28400
H1486       H  0.88472001  0.06475958  0.73982761     0.28400
H1487       H  0.82493866  0.44317134  0.70243661     0.19000
H1488       H  0.83175847  0.03243013  0.54101778     0.19000
C1489       C  0.77969955  0.38657028  0.92221700    -0.06800
C1490       C  0.78263986  0.35267249  0.95079431    -0.17900
C1491       C  0.77441081  0.34436937  0.50958676     0.10400
C1492       C  0.76933115  0.37494554  0.54512887    -0.06700
C1493       C  0.75193750  0.39739361  0.51671430    -0.18000
C1494       C  0.75522023  0.40216020  0.95610763     0.10400
S1495       S  0.74724668  0.28508252  0.52408578    -0.32900
S1496       S  0.72049489  0.42071484  0.92948589    -0.32900
H1497       H  0.70365458  0.38512437  0.89177585     0.28400
H1498       H  0.71836284  0.28542947  0.56633724     0.28400
H1499       H  0.78794578  0.32923455  0.92686002     0.19000
H1500       H  0.73999008  0.41500215  0.54136739     0.19000
C1501       C  0.82132298  0.37011934  0.61533390    -0.06800
C1502       C  0.79931443  0.32357893  0.62543521    -0.17900
C1503       C  0.82005845  0.29829349  0.62656963     0.10400
C1504       C  0.86814386  0.31959825  0.62387926    -0.06700
C1505       C  0.89040113  0.36575435  0.60917231    -0.18000
C1506       C  0.86941279  0.39148432  0.60838631     0.10400
S1507       S  0.77802661  0.23940351  0.62434402    -0.32900
S1508       S  0.90739756  0.45130841  0.60265060    -0.32900
H1509       H  0.94878106  0.45331339  0.59548180     0.28400
H1510       H  0.80357494  0.22040784  0.61966767     0.28400
H1511       H  0.76351718  0.30483868  0.63221654     0.19000
H1512       H  0.92584868  0.38315097  0.60024583     0.19000
C1513       C  0.54499175  0.36930643  0.64418654    -0.06800
C1514       C  0.51878364  0.38793584  0.66473169    -0.17900
C1515       C  0.97106894  0.36331985  0.67105737     0.10400
C1516       C  0.94572793  0.32060046  0.64478588    -0.06700
C1517       C  0.97102102  0.30108366  0.62949009    -0.18000
C1518       C  0.51810855  0.32358303  0.62853350     0.10400
S1519       S  0.94592761  0.38950231  0.71067110    -0.32900
S1520       S  0.54034929  0.29375458  0.59314628    -0.32900
H1521       H  0.53440526  0.26986675  0.64378572     0.28400
H1522       H  0.90654041  0.34846450  0.72377167     0.28400
H1523       H  0.53251038  0.42295968  0.66982376     0.19000
H1524       H  0.95420391  0.27041201  0.60670823     0.19000
C1525       C  0.59913315  0.39359063  0.93655690    -0.06800
C1526       C  0.61621330  0.37066149  0.96585111    -0.17900
C1527       C  0.61976369  0.37161502  0.52726292     0.10400
C1528       C  0.60304121  0.39373130  0.56277679    -0.06700
C1529       C  0.58602717  0.41615947  0.53322486    -0.18000
C1530       C  0.58115002  0.41436677  0.97299872     0.10400
S1531       S  0.64343899  0.34126254  0.55578400    -0.32900
S1532       S  0.55506202  0.44363510  0.94646642    -0.32900
H1533       H  0.55069553  0.46332863  0.99657267     0.28400
H1534       H  0.66977060  0.37058237  0.59675910     0.28400
H1535       H  0.62902154  0.35374485  0.94082700     0.19000
H1536       H  0.57410355  0.43435625  0.55807004     0.19000
C1537       C  0.67278356  0.12882556  0.86445535    -0.06800
C1538       C  0.69656221  0.17594836  0.86100568    -0.17900
C1539       C  0.67629945  0.20184844  0.86259758     0.10400
C1540       C  0.62839893  0.18228789  0.86204099    -0.06700
C1541       C  0.60397173  0.13499628  0.85660666    -0.18000
C1542       C  0.62456544  0.10834271  0.86021917     0.10400
S1543       S  0.71512723  0.25967294  0.87585192    -0.32900
S1544       S  0.58607553  0.04986418  0.87385579    -0.32900
H1545       H  0.54897766  0.04673991  0.84722917     0.28400
H1546       H  0.75122934  0.26346872  0.84194296     0.28400
H1547       H  0.73229548  0.19354224  0.86645096     0.19000
H1548       H  0.56765940  0.11797057  0.85737674     0.19000
C1549       C  0.67684776  0.05450602  0.87862115    -0.06800
C1550       C  0.67614565  0.03434221  0.82603997    -0.17900
C1551       C  0.65773734  0.48786093  0.81777295     0.10400
C1552       C  0.64105871  0.45819438  0.86570161    -0.06700
C1553       C  0.66254864  0.48126896  0.91503232    -0.18000
C1554       C  0.66546095  0.02531003  0.92576651     0.10400
S1555       S  0.68635913  0.47801499  0.76063063    -0.32900
S1556       S  0.64595565  0.03294229  0.99288246    -0.32900
H1557       H  0.62638832  0.05594108  0.97192375     0.28400
H1558       H  0.72716902  0.51946393  0.76274277     0.28400
H1559       H  0.69235413  0.05533033  0.78932260     0.19000
H1560       H  0.66615191  0.46445351  0.95100817     0.19000
C1561       C  0.89840422  0.28798641  0.92923155    -0.06800
C1562       C  0.93714959  0.31126038  0.96120497    -0.17900
C1563       C  0.93531084  0.31697492  0.52012770     0.10400
C1564       C  0.89789536  0.28620502  0.55542613    -0.06700
C1565       C  0.86035166  0.25538443  0.52347274    -0.18000
C1566       C  0.85823455  0.26149158  0.96308260     0.10400
S1567       S  0.98093890  0.36960244  0.54040705    -0.30900
S1568       S  0.80394484  0.23588453  0.93311211    -0.32900
H1569       H  0.77871818  0.22532003  0.98462762     0.28400
H1570       H  0.00692530  0.35028548  0.52812537     0.28400
H1571       H  0.96906551  0.33518688  0.94152433     0.19000
H1572       H  0.83126147  0.22777811  0.54305036     0.19000
C1573       C  0.95512364  0.32627090  0.84425719    -0.06800
C1574       C  0.97998004  0.37193136  0.82863397    -0.17900
C1575       C  0.52806254  0.39858451  0.82961831     0.10400
C1576       C  0.55446771  0.38113360  0.85089874    -0.06700
C1577       C  0.52864217  0.33406672  0.86138279    -0.18000
C1578       C  0.98208823  0.30718958  0.85390399     0.10400
S1579       S  0.54810880  0.45429393  0.80632775    -0.32900
S1580       S  0.95794420  0.25008816  0.87569412    -0.32900
H1581       H  0.97656438  0.26122408  0.92951579     0.28400
H1582       H  0.58200406  0.47497019  0.84353648     0.28400
H1583       H  0.96191391  0.38853700  0.81995879     0.19000
H1584       H  0.54539130  0.31760734  0.87733102     0.19000
C1585       C  0.83482502  0.38224794  0.85170815    -0.06800
C1586       C  0.86739947  0.39176857  0.89224660    -0.17900
C1587       C  0.89207181  0.36988860  0.89423156     0.10400
C1588       C  0.88183464  0.33229401  0.85846265    -0.06700
C1589       C  0.85103507  0.32493290  0.81647343    -0.18000
C1590       C  0.83145868  0.35142891  0.81097616     0.10400
S1591       S  0.93997252  0.39752921  0.93753155    -0.32900
S1592       S  0.81877444  0.35773385  0.74268231    -0.32900
H1593       H  0.79199652  0.31098240  0.73686065     0.28400
H1594       H  0.91925980  0.40935825  0.98090292     0.28400
H1595       H  0.87451300  0.41811439  0.92190844     0.19000
H1596       H  0.84533049  0.30154005  0.78316337     0.19000
C1597       C  0.67495496  0.04599423  0.64323324    -0.06800
C1598       C  0.68399663  0.02115612  0.60441220    -0.17900
C1599       C  0.67303047  0.47668652  0.62249669     0.10400
C1600       C  0.62730010  0.44866821  0.64240978    -0.06700
C1601       C  0.61323807  0.47113865  0.67980911    -0.18000
C1602       C  0.64066188  0.01861121  0.68603108     0.10400
S1603       S  0.70527208  0.45684463  0.58748784    -0.32900
S1604       S  0.61605567  0.04004861  0.73607903    -0.32900
H1605       H  0.65526714  0.07976131  0.74959817     0.28400
H1606       H  0.74247249  0.47941680  0.62230925     0.28400
H1607       H  0.70248288  0.03458985  0.56607780     0.19000
H1608       H  0.58910179  0.45188748  0.71292724     0.19000
C1609       C  0.72121176  0.11830356  0.57301442    -0.06800
C1610       C  0.70905923  0.14577933  0.54636686    -0.17900
C1611       C  0.70037272  0.14208092  0.98718127     0.10400
C1612       C  0.71791914  0.12233732  0.94797994    -0.06700
C1613       C  0.74739122  0.11135440  0.97442948    -0.18000
C1614       C  0.74934432  0.10953090  0.53685971     0.10400
S1615       S  0.65238624  0.14637019  0.97905791    -0.32900
S1616       S  0.78348960  0.09175681  0.56881956    -0.32900
H1617       H  0.78587691  0.06867590  0.52108578     0.28400
H1618       H  0.67311983  0.19034852  0.99960061     0.28400
H1619       H  0.69842031  0.16474337  0.57179605     0.19000
H1620       H  0.76396440  0.09838143  0.94847126     0.19000
C1621       C  0.66858672  0.11572858  0.65347744    -0.06800
C1622       C  0.68171825  0.15231835  0.68919104    -0.17900
C1623       C  0.66364590  0.18004897  0.68688132     0.10400
C1624       C  0.62246211  0.16562825  0.65737510    -0.06700
C1625       C  0.60310984  0.12143593  0.63886623    -0.18000
C1626       C  0.62544944  0.09830828  0.63082950     0.10400
S1627       S  0.69801292  0.23123881  0.72360642    -0.32900
S1628       S  0.59347157  0.04443571  0.59764302    -0.32900
H1629       H  0.55047813  0.03285496  0.61974514     0.28400
H1630       H  0.73606656  0.22892109  0.73591850     0.28400
H1631       H  0.70717093  0.16037072  0.71895669     0.19000
H1632       H  0.56836598  0.10214741  0.63483696     0.19000
O1633       O  0.73643123  0.83967214  0.31325818    -0.86000
O1634       O  0.65424500  0.75775481  0.30113333    -0.83100
C1635       C  0.62543819  0.75292100  0.33871653     0.97400
O1636       O  0.60699449  0.77605010  0.33274087    -0.83100
O1637       O  0.60375388  0.85189564  0.30134791    -0.85700
C1638       C  0.63025421  0.88454319  0.33166215     1.02000
O1639       O  0.67244768  0.90162557  0.32106878    -0.78500
O1640       O  0.75568349  0.90710433  0.28618345    -0.78700
C1641       C  0.76278002  0.88212258  0.31780267     1.01900
O1642       O  0.74509871  0.84643454  0.18999241    -0.86000
O1643       O  0.66101239  0.77011669  0.17572929    -0.83100
C1644       C  0.61940078  0.73984059  0.17897740     0.97500
O1645       O  0.59494907  0.74741819  0.21351235    -0.83100
O1646       O  0.60200214  0.83277663  0.18327974    -0.85700
C1647       C  0.62003920  0.87477039  0.17288820     1.01900
O1648       O  0.65469563  0.90137326  0.19952255    -0.78500
O1649       O  0.73125615  0.89769769  0.16629900    -0.78700
C1650       C  0.75205714  0.87696687  0.15567742     1.01900
Cr1651     Cr  0.69656121  0.80613493  0.24548156     1.93700
Cr1652     Cr  0.60786354  0.80504242  0.25652515     1.93200
Cr1653     Cr  0.70035177  0.89617524  0.24397656     1.39100
O1654       O  0.66838834  0.83604405  0.24881897    -1.23800
C1655       C  0.70365873  0.59993673  0.13934729    -0.03200
C1656       C  0.90117376  0.79997355  0.36883970    -0.03200
C1657       C  0.70090111  0.60600230  0.38448119    -0.03200
C1658       C  0.60903869  0.90663725  0.37220205    -0.03200
C1659       C  0.59955031  0.89585204  0.13257822    -0.03200
C1660       C  0.89502106  0.79502798  0.12656573    -0.03200
C1661       C  0.79074758  0.89206022  0.10699234    -0.03200
C1662       C  0.60672571  0.71158912  0.38143233    -0.03200
C1663       C  0.90103638  0.60927682  0.37411372    -0.03200
C1664       C  0.80341427  0.90366739  0.36123160    -0.03200
C1665       C  0.88905457  0.59353357  0.12677367    -0.03200
C1666       C  0.59887153  0.69326429  0.14449038    -0.03200
O1667       O  0.74902866  0.65167989  0.30269471    -0.86000
O1668       O  0.83385740  0.73080195  0.32646250    -0.83100
C1669       C  0.87673808  0.75708346  0.32790347     0.97400
O1670       O  0.90083095  0.75038271  0.29153461    -0.83100
O1671       O  0.89946543  0.66996353  0.31769443    -0.85700
C1672       C  0.88007112  0.62852854  0.33201323     1.02000
O1673       O  0.84516925  0.60100908  0.30629367    -0.78500
O1674       O  0.76800983  0.60649097  0.33618721    -0.78700
C1675       C  0.74320203  0.62359575  0.34054559     1.01900
O1676       O  0.77111119  0.66263123  0.18355371    -0.86000
O1677       O  0.84695540  0.74949921  0.20775043    -0.83100
C1678       C  0.87402400  0.75296527  0.16835493     0.97500
O1679       O  0.88818964  0.72583818  0.17028268    -0.83100
O1680       O  0.89484194  0.65099706  0.19454392    -0.85700
C1681       C  0.86816584  0.61507665  0.16932840     1.01900
O1682       O  0.82657428  0.59480528  0.18570139    -0.78500
O1683       O  0.74755772  0.59523701  0.21549782    -0.78700
C1684       C  0.74403568  0.62052991  0.18047150     1.01900
Cr1685     Cr  0.80265232  0.69550163  0.25500542     1.93700
Cr1686     Cr  0.89073210  0.69649570  0.24446339     1.93200
Cr1687     Cr  0.79991777  0.60525131  0.26056648     1.39100
O1688       O  0.83130000  0.66551749  0.25411176    -1.23800
C1689       C  0.94212295  0.61629016  0.14110045    -0.06800
C1690       C  0.96303322  0.59558824  0.16820886    -0.17900
C1691       C  0.51289147  0.62071901  0.18176181     0.10400
C1692       C  0.54434145  0.66495462  0.15625128    -0.06700
C1693       C  0.52265489  0.68447240  0.13060366    -0.18000
C1694       C  0.97339720  0.66195976  0.12446845     0.10400
S1695       S  0.52757384  0.59106192  0.23121420    -0.32900
S1696       S  0.95559869  0.69730401  0.09683976    -0.32900
H1697       H  0.95901234  0.71577346  0.15078509     0.28400
H1698       H  0.57044094  0.62648397  0.24368546     0.28400
H1699       H  0.94238310  0.56171080  0.18399552     0.19000
H1700       H  0.54354641  0.71731141  0.11130141     0.19000
C1701       C  0.89191413  0.60813169  0.43994295    -0.06800
C1702       C  0.91238012  0.58831731  0.46809798    -0.17900
C1703       C  0.91436067  0.58619554  0.02549243     0.10400
C1704       C  0.89437068  0.60467206  0.06158908    -0.06700
C1705       C  0.87848269  0.62962153  0.03419112    -0.18000
C1706       C  0.87578370  0.63072569  0.47492511     0.10400
S1707       S  0.93626724  0.55112848  0.04427229    -0.32900
S1708       S  0.85834978  0.66692224  0.44751420    -0.32900
H1709       H  0.83112302  0.63752292  0.40649319     0.28400
H1710       H  0.91913332  0.53506303  0.09815337     0.28400
H1711       H  0.92984529  0.57516474  0.44373627     0.19000
H1712       H  0.86736134  0.64813152  0.05991876     0.19000
C1713       C  0.87770135  0.55594369  0.36340101    -0.06800
C1714       C  0.90198724  0.53405720  0.35140573    -0.17900
C1715       C  0.88247118  0.98790396  0.34700956     0.10400
C1716       C  0.83378492  0.95833294  0.35513108    -0.06700
C1717       C  0.81122593  0.98197386  0.35932295    -0.18000
C1718       C  0.83004357  0.52599745  0.37099859     0.10400
S1719       S  0.91882800  0.97024161  0.31482355    -0.32900
S1720       S  0.79277465  0.54346853  0.39936444    -0.32900
H1721       H  0.75404208  0.51218037  0.37121874     0.28400
H1722       H  0.95874274  0.00347544  0.33916865     0.28400
H1723       H  0.93805204  0.55491296  0.34460282     0.19000
H1724       H  0.77614499  0.96449585  0.35243478     0.19000
C1725       C  0.60504590  0.70027155  0.07534352    -0.06800
C1726       C  0.63406480  0.74234108  0.04715454    -0.17900
C1727       C  0.63815921  0.74928223  0.48567370     0.10400
C1728       C  0.61220299  0.71351399  0.44872994    -0.06700
C1729       C  0.58412747  0.67237830  0.47643968    -0.18000
C1730       C  0.57965210  0.66499352  0.03595950     0.10400
S1731       S  0.67462705  0.80387993  0.45673946    -0.32900
S1732       S  0.53682134  0.60892150  0.05229937    -0.32900
H1733       H  0.55043108  0.58820361  0.01142876     0.28400
H1734       H  0.64209141  0.80237525  0.42312987     0.28400
H1735       H  0.65377335  0.77099404  0.07276534     0.19000
H1736       H  0.56284268  0.64417870  0.45042919     0.19000
C1737       C  0.95513106  0.64016548  0.36866656    -0.06800
C1738       C  0.97847227  0.67325762  0.40996127    -0.17900
C1739       C  0.52746446  0.69880737  0.41201591     0.10400
C1740       C  0.55444574  0.68900184  0.37472113    -0.06700
C1741       C  0.53306250  0.66609849  0.32564585    -0.18000
C1742       C  0.98328241  0.64455719  0.32142046     0.10400
S1743       S  0.54938743  0.74623894  0.45856836    -0.32900
S1744       S  0.97162628  0.66291208  0.25883507    -0.32900
H1745       H  0.93153278  0.62146328  0.25548193     0.28400
H1746       H  0.52027526  0.72083001  0.50450110     0.28400
H1747       H  0.96024131  0.68158996  0.44045017     0.19000
H1748       H  0.55460325  0.67131568  0.28878147     0.19000
C1749       C  0.81852567  0.94488291  0.11109847    -0.06800
C1750       C  0.83195559  0.96538432  0.16469705    -0.17900
C1751       C  0.84878340  0.51085769  0.17179999     0.10400
C1752       C  0.85506808  0.53978811  0.12692934    -0.06700
C1753       C  0.83200852  0.51646331  0.07753468    -0.18000
C1754       C  0.82614724  0.97489229  0.06578387     0.10400
S1755       S  0.86043686  0.53254631  0.23935987    -0.32900
S1756       S  0.84693633  0.97132110  0.99581326    -0.32900
H1757       H  0.85322050  0.93583825  0.00869202     0.28400
H1758       H  0.88734020  0.51392112  0.24367703     0.28400
H1759       H  0.82697736  0.94482206  0.20178629     0.19000
H1760       H  0.82836213  0.53360284  0.04200173     0.19000
C1761       C  0.78095312  0.88847927  0.42453082    -0.06800
C1762       C  0.78312953  0.85394720  0.45247765    -0.17900
C1763       C  0.77677997  0.84563721  0.01039983     0.10400
C1764       C  0.76986757  0.87501660  0.04627170    -0.06700
C1765       C  0.75163782  0.89666239  0.01792542    -0.18000
C1766       C  0.75750433  0.90480706  0.45915651     0.10400
S1767       S  0.75365705  0.78674698  0.02439967    -0.32900
S1768       S  0.72365096  0.92469902  0.43341706    -0.32900
H1769       H  0.70644737  0.88927734  0.39547035     0.28400
H1770       H  0.72122551  0.78325389  0.06395250     0.28400
H1771       H  0.78787278  0.83039625  0.42799077     0.19000
H1772       H  0.73898625  0.91360032  0.04294831     0.19000
C1773       C  0.82147995  0.87111418  0.11732126    -0.06800
C1774       C  0.79922767  0.82482431  0.12896346    -0.17900
C1775       C  0.81986598  0.79956006  0.13237927     0.10400
C1776       C  0.86791939  0.82050302  0.12887966    -0.06700
C1777       C  0.89030784  0.86649903  0.11300701    -0.18000
C1778       C  0.86941622  0.89216908  0.11038955     0.10400
S1779       S  0.77760752  0.74089301  0.13493976    -0.32900
S1780       S  0.90751810  0.95125932  0.09847694    -0.32900
H1781       H  0.94527316  0.95444521  0.12330167     0.28400
H1782       H  0.80323186  0.72267671  0.12408923     0.28400
H1783       H  0.76322648  0.80624500  0.13426975     0.19000
H1784       H  0.92574148  0.88402689  0.10358279     0.19000
C1785       C  0.54632637  0.87052571  0.14775130    -0.06800
C1786       C  0.52136215  0.89024749  0.16861574    -0.17900
C1787       C  0.97060915  0.86371996  0.17474611     0.10400
C1788       C  0.94513560  0.82101005  0.14856286    -0.06700
C1789       C  0.97014680  0.80128233  0.13290305    -0.18000
C1790       C  0.51874385  0.82476140  0.13309524     0.10400
S1791       S  0.94572882  0.88998049  0.21474929    -0.32900
S1792       S  0.54038917  0.79410241  0.09850893    -0.32900
H1793       H  0.53510431  0.77107761  0.14971384     0.28400
H1794       H  0.90667017  0.84889566  0.22883997     0.28400
H1795       H  0.53736400  0.92514143  0.17759189     0.19000
H1796       H  0.95318529  0.77051418  0.11024176     0.19000
C1797       C  0.60131530  0.89461913  0.43935594    -0.06800
C1798       C  0.61886821  0.87196920  0.46813533    -0.17900
C1799       C  0.61834751  0.86961661  0.02925776     0.10400
C1800       C  0.60173441  0.89188428  0.06457868    -0.06700
C1801       C  0.58515615  0.91468599  0.03481581    -0.18000
C1802       C  0.58078441  0.91287682  0.47588476     0.10400
S1803       S  0.64326969  0.84078242  0.05870239    -0.32900
S1804       S  0.55439138  0.94190746  0.44915501    -0.32900
H1805       H  0.55052810  0.96193891  0.49921006     0.28400
H1806       H  0.67073916  0.87310582  0.09660987     0.28400
H1807       H  0.63331701  0.85679439  0.44278922     0.19000
H1808       H  0.57364840  0.93329210  0.05953129     0.19000
C1809       C  0.67245404  0.62841914  0.36641606    -0.06800
C1810       C  0.69697734  0.67556994  0.36230934    -0.17900
C1811       C  0.67730985  0.70201718  0.36390263     0.10400
C1812       C  0.62950117  0.68289810  0.36349422    -0.06700
C1813       C  0.60443840  0.63552029  0.35890275    -0.18000
C1814       C  0.62435397  0.60843092  0.36321352     0.10400
S1815       S  0.71641794  0.75974963  0.37782548    -0.32900
S1816       S  0.58541895  0.55019093  0.37837397    -0.32900
H1817       H  0.54877527  0.54699674  0.35041882     0.28400
H1818       H  0.75354795  0.76319409  0.34687330     0.28400
H1819       H  0.73273780  0.69272466  0.36779549     0.19000
H1820       H  0.56814698  0.61878042  0.36001049     0.19000
C1821       C  0.67473936  0.55331092  0.37881996    -0.06800
C1822       C  0.67032840  0.53378783  0.32475654    -0.17900
C1823       C  0.66293103  0.99007413  0.32140765     0.10400
C1824       C  0.64311302  0.96059731  0.36965443    -0.06700
C1825       C  0.65951560  0.98481138  0.42052212    -0.18000
C1826       C  0.66599278  0.52352436  0.42489451     0.10400
S1827       S  0.69065922  0.97893759  0.26390207    -0.32900
S1828       S  0.64844835  0.52839919  0.49489209    -0.32900
H1829       H  0.63013563  0.55359166  0.47673956     0.28400
H1830       H  0.73228933  0.01970323  0.26565099     0.28400
H1831       H  0.68421317  0.55538181  0.28785341     0.19000
H1832       H  0.66119874  0.96944848  0.45919966     0.19000
C1833       C  0.89720624  0.78766270  0.43530345    -0.06800
C1834       C  0.93598874  0.81218983  0.46697707    -0.17900
C1835       C  0.93438947  0.81746759  0.02410788     0.10400
C1836       C  0.89697993  0.78688629  0.05959551    -0.06700
C1837       C  0.85934987  0.75604225  0.02775330    -0.18000
C1838       C  0.85739184  0.76024251  0.46990257     0.10400
S1839       S  0.98024826  0.87008593  0.04403880    -0.30900
S1840       S  0.80299354  0.73302908  0.44019107    -0.32900
H1841       H  0.77870090  0.72393812  0.49223695     0.28400
H1842       H  0.00593096  0.85047911  0.03165620     0.28400
H1843       H  0.96773070  0.83642657  0.44712305     0.19000
H1844       H  0.83014362  0.72877364  0.04758263     0.19000
C1845       C  0.95397747  0.82580866  0.34989398    -0.06800
C1846       C  0.97901122  0.87144152  0.33337405    -0.17900
C1847       C  0.53065044  0.89948237  0.33109855     0.10400
C1848       C  0.55688832  0.88246872  0.35406118    -0.06700
C1849       C  0.53089635  0.83557667  0.36640424    -0.18000
C1850       C  0.98088221  0.80678461  0.36011211     0.10400
S1851       S  0.55122891  0.95494530  0.30642290    -0.32900
S1852       S  0.95641075  0.74968582  0.38240538    -0.32900
H1853       H  0.97468110  0.76117280  0.43639164     0.28400
H1854       H  0.58415136  0.97547100  0.34516943     0.28400
H1855       H  0.96111548  0.88810498  0.32412433     0.19000
H1856       H  0.54766477  0.81927652  0.38283209     0.19000
C1857       C  0.83586677  0.88377330  0.35420041    -0.06800
C1858       C  0.86808980  0.89303200  0.39496155    -0.17900
C1859       C  0.89224746  0.87072700  0.39765451     0.10400
C1860       C  0.88088480  0.83200305  0.36341400    -0.06700
C1861       C  0.85046401  0.82491291  0.32089103    -0.18000
C1862       C  0.83206671  0.85242779  0.31412627     0.10400
S1863       S  0.93962347  0.89801877  0.44188171    -0.32900
S1864       S  0.82109124  0.85969692  0.24530911    -0.32900
H1865       H  0.79201074  0.81310333  0.24041284     0.28400
H1866       H  0.94762032  0.94183582  0.43680503     0.28400
H1867       H  0.87489988  0.91904250  0.42491869     0.19000
H1868       H  0.84438920  0.80108957  0.28802455     0.19000
C1869       C  0.67580396  0.54669241  0.14920551    -0.06800
C1870       C  0.69615013  0.52296593  0.13245827    -0.17900
C1871       C  0.66844586  0.97692645  0.10829323     0.10400
C1872       C  0.62872274  0.94900130  0.14172270    -0.06700
C1873       C  0.61972114  0.97255191  0.18372788    -0.18000
C1874       C  0.63352853  0.51869965  0.18017115     0.10400
S1875       S  0.70108983  0.95819705  0.07058521    -0.32900
S1876       S  0.60528966  0.53856809  0.22704692    -0.32900
H1877       H  0.64333575  0.57592198  0.24807074     0.28400
H1878       H  0.74318671  0.99614223  0.08160121     0.28400
H1879       H  0.73138782  0.53850519  0.13711552     0.19000
H1880       H  0.59741167  0.95342719  0.21856058     0.19000
C1881       C  0.72184401  0.61571644  0.07382558    -0.06800
C1882       C  0.71166104  0.64491862  0.04665677    -0.17900
C1883       C  0.70200893  0.64081031  0.48933249     0.10400
C1884       C  0.71688477  0.61980155  0.44867320    -0.06700
C1885       C  0.74399042  0.60548380  0.47306657    -0.18000
C1886       C  0.74616300  0.60285324  0.03549825     0.10400
S1887       S  0.65789781  0.65147659  0.48177738    -0.32900
S1888       S  0.78102406  0.58375535  0.05938536    -0.32900
H1889       H  0.77231388  0.55366242  0.01505935     0.28400
H1890       H  0.68001827  0.69352368  0.50783100     0.28400
H1891       H  0.70338428  0.66585858  0.07164529     0.19000
H1892       H  0.75907161  0.59202444  0.44528171     0.19000
C1893       C  0.67110067  0.61777892  0.15413990    -0.06800
C1894       C  0.68308734  0.65299649  0.19193635    -0.17900
C1895       C  0.66470442  0.68066425  0.19064721     0.10400
C1896       C  0.62408619  0.66706329  0.16018100    -0.06700
C1897       C  0.60582927  0.62395356  0.13871134    -0.18000
C1898       C  0.62945593  0.60243247  0.12798643     0.10400
S1899       S  0.69842726  0.73147068  0.22816089    -0.32900
S1900       S  0.60126063  0.55287963  0.08566463    -0.32900
H1901       H  0.55641734  0.54071578  0.09845689     0.28400
H1902       H  0.73302497  0.72629279  0.24855920     0.28400
H1903       H  0.70841141  0.66053275  0.22165842     0.19000
H1904       H  0.57106318  0.60417541  0.13479926     0.19000
O1905       O  0.73565811  0.83868306  0.81295849    -0.86000
O1906       O  0.65398334  0.75653506  0.80136610    -0.83100
C1907       C  0.62499543  0.75156122  0.83872786     0.97400
O1908       O  0.60626050  0.77441897  0.83239081    -0.83100
O1909       O  0.60229276  0.85005827  0.80080368    -0.85700
C1910       C  0.62854871  0.88268568  0.83133730     1.02000
O1911       O  0.67075585  0.89988571  0.82092299    -0.78500
O1912       O  0.75421277  0.90615269  0.78681378    -0.78700
C1913       C  0.76175702  0.88115698  0.81759241     1.01900
O1914       O  0.74374356  0.84444932  0.68913992    -0.86000
O1915       O  0.66076226  0.76883707  0.67572626    -0.83100
C1916       C  0.61926003  0.73860163  0.67867114     0.97500
O1917       O  0.59458611  0.74591425  0.71315432    -0.83100
O1918       O  0.60098630  0.83097737  0.68265867    -0.85700
C1919       C  0.61920285  0.87304625  0.67246007     1.01900
O1920       O  0.65370736  0.89959338  0.69931676    -0.78500
O1921       O  0.73105587  0.89682981  0.66697650    -0.78700
C1922       C  0.75156420  0.87581766  0.65596480     1.01900
Cr1923     Cr  0.69586515  0.80480730  0.74536590     1.93700
Cr1924     Cr  0.60695870  0.80334545  0.75609971     1.93200
Cr1925     Cr  0.69920393  0.89474652  0.74413691     1.39100
O1926       O  0.66749669  0.83457197  0.74860993    -1.23800
C1927       C  0.70474468  0.59936479  0.63881550    -0.03200
C1928       C  0.90197104  0.80046655  0.86768671    -0.03200
C1929       C  0.70232993  0.60597915  0.88487956    -0.03200
C1930       C  0.60726622  0.90486587  0.87180711    -0.03200
C1931       C  0.59906512  0.89443247  0.63238499    -0.03200
C1932       C  0.89675466  0.79592071  0.62733490    -0.03200
C1933       C  0.79093199  0.89144682  0.60821906    -0.03200
C1934       C  0.60654859  0.71041209  0.88177633    -0.03200
C1935       C  0.90247232  0.60980510  0.87371845    -0.03200
C1936       C  0.80267604  0.90285924  0.86010049    -0.03200
C1937       C  0.89022242  0.59363561  0.62685610    -0.03200
C1938       C  0.59914393  0.69249414  0.64362426    -0.03200
O1939       O  0.74997450  0.65158299  0.80217316    -0.86000
O1940       O  0.83484182  0.73098113  0.82534884    -0.83100
C1941       C  0.87771093  0.75745034  0.82686300     0.97400
O1942       O  0.90196956  0.75075701  0.79077913    -0.83100
O1943       O  0.90084555  0.67046027  0.81715498    -0.85700
C1944       C  0.88154793  0.62902011  0.83150086     1.02000
O1945       O  0.84666150  0.60144367  0.80584419    -0.78500
O1946       O  0.76985238  0.60731500  0.83632616    -0.78700
C1947       C  0.74474025  0.62407239  0.84069409     1.01900
O1948       O  0.77274736  0.66291596  0.68183326    -0.86000
O1949       O  0.84799065  0.74959837  0.70728090    -0.83100
C1950       C  0.87501058  0.75321219  0.66786834     0.97500
O1951       O  0.88927737  0.72615176  0.66960552    -0.83100
O1952       O  0.89609049  0.65135026  0.69406429    -0.85700
C1953       C  0.86939322  0.61518499  0.66932682     1.01900
O1954       O  0.82780197  0.59494692  0.68566940    -0.78500
O1955       O  0.74896248  0.59578723  0.71534863    -0.78700
C1956       C  0.74550407  0.62069184  0.67952798     1.01900
Cr1957     Cr  0.80371044  0.69558191  0.75404048     1.93700
Cr1958     Cr  0.89200119  0.69690009  0.74383642     1.93200
Cr1959     Cr  0.80132527  0.60568428  0.76040030     1.39100
O1960       O  0.83260484  0.66585675  0.75354490    -1.23800
C1961       C  0.94344320  0.61651339  0.64071651    -0.06800
C1962       C  0.96440160  0.59580763  0.66769782    -0.17900
C1963       C  0.51347146  0.61969832  0.68096079     0.10400
C1964       C  0.54470716  0.66407755  0.65582775    -0.06700
C1965       C  0.52285965  0.68370381  0.63088400    -0.18000
C1966       C  0.97473462  0.66214829  0.62394221     0.10400
S1967       S  0.52880039  0.58954715  0.72859441    -0.32900
S1968       S  0.95683336  0.69728042  0.59566786    -0.32900
H1969       H  0.96025178  0.71598229  0.64945908     0.28400
H1970       H  0.57138109  0.62514913  0.74179928     0.28400
H1971       H  0.94392424  0.56173875  0.68273628     0.19000
H1972       H  0.54367436  0.71650671  0.61157492     0.19000
C1973       C  0.89328327  0.60886424  0.93946864    -0.06800
C1974       C  0.91341287  0.58892097  0.96813210    -0.17900
C1975       C  0.91478721  0.58657151  0.52528790     0.10400
C1976       C  0.89474350  0.60469755  0.56187184    -0.06700
C1977       C  0.87745104  0.62867533  0.53513603    -0.18000
C1978       C  0.87709181  0.63156696  0.97401458     0.10400
S1979       S  0.93863853  0.55310521  0.54353056    -0.32900
S1980       S  0.85995291  0.66784998  0.94620688    -0.32900
H1981       H  0.83265875  0.63834268  0.90536703     0.28400
H1982       H  0.92021022  0.53519760  0.59643101     0.28400
H1983       H  0.93120891  0.57593376  0.94414426     0.19000
H1984       H  0.86531425  0.64612731  0.56132152     0.19000
C1985       C  0.87894053  0.55638568  0.86339250    -0.06800
C1986       C  0.90312223  0.53432111  0.85206180    -0.17900
C1987       C  0.87997223  0.98708593  0.83720066     0.10400
C1988       C  0.83243482  0.95749820  0.85311162    -0.06700
C1989       C  0.81021115  0.98093064  0.86272850    -0.18000
C1990       C  0.83120848  0.52655944  0.87067035     0.10400
S1991       S  0.91202387  0.96761982  0.79756292    -0.32900
S1992       S  0.79408542  0.54418435  0.89931261    -0.32900
H1993       H  0.75536996  0.51304557  0.87105685     0.28400
H1994       H  0.95506480  0.00571274  0.80409696     0.28400
H1995       H  0.93921669  0.55508227  0.84519422     0.19000
H1996       H  0.77505910  0.96350498  0.85740925     0.19000
C1997       C  0.60531085  0.70024475  0.57456972    -0.06800
C1998       C  0.63431877  0.74258268  0.54678985    -0.17900
C1999       C  0.63774368  0.74865609  0.98603406     0.10400
C2000       C  0.61170955  0.71274964  0.94922517    -0.06700
C2001       C  0.58355064  0.67180797  0.97732409    -0.18000
C2002       C  0.57981484  0.66525492  0.53498246     0.10400
S2003       S  0.67484527  0.80302818  0.95732692    -0.32900
S2004       S  0.53537496  0.60994054  0.55185197    -0.32900
H2005       H  0.53989583  0.58714244  0.50498832     0.28400
H2006       H  0.64387326  0.80234232  0.92152582     0.28400
H2007       H  0.65358419  0.77110657  0.57274353     0.19000
H2008       H  0.56241187  0.64316356  0.95165162     0.19000
C2009       C  0.95658037  0.64058843  0.86815731    -0.06800
C2010       C  0.98001055  0.67343055  0.90966906    -0.17900
C2011       C  0.52765017  0.69875236  0.91098293     0.10400
C2012       C  0.55427533  0.68766161  0.87489892    -0.06700
C2013       C  0.53268035  0.66359029  0.82650066    -0.18000
C2014       C  0.98470833  0.64543469  0.82057507     0.10400
S2015       S  0.55060944  0.74800539  0.95476110    -0.32900
S2016       S  0.97268228  0.66358492  0.75811629    -0.32900
H2017       H  0.93285230  0.62194963  0.75488030     0.28400
H2018       H  0.51712638  0.72804472  0.99842673     0.28400
H2019       H  0.96204271  0.68186088  0.94052787     0.19000
H2020       H  0.55413412  0.66773338  0.78999386     0.19000
C2021       C  0.81883327  0.94396549  0.61313957    -0.06800
C2022       C  0.82902031  0.96400888  0.66725930    -0.17900
C2023       C  0.85033787  0.51100347  0.67221388     0.10400
C2024       C  0.85643608  0.53983530  0.62725153    -0.06700
C2025       C  0.83317227  0.51632966  0.57802995    -0.18000
C2026       C  0.82933761  0.97405970  0.56720570     0.10400
S2027       S  0.86401692  0.53325647  0.73928199    -0.32900
S2028       S  0.85175051  0.96910907  0.49905455    -0.32900
H2029       H  0.85699968  0.93350415  0.51515092     0.28400
H2030       H  0.88990584  0.51342075  0.74309352     0.28400
H2031       H  0.82084603  0.94301846  0.70488884     0.19000
H2032       H  0.82933521  0.53322262  0.54238195     0.19000
C2033       C  0.78070143  0.88760118  0.92372603    -0.06800
C2034       C  0.78457585  0.85420497  0.95216202    -0.17900
C2035       C  0.77611064  0.84571205  0.51078373     0.10400
C2036       C  0.77037293  0.87555928  0.54707264    -0.06700
C2037       C  0.75348838  0.89870631  0.51903721    -0.18000
C2038       C  0.75539630  0.90222612  0.95793982     0.10400
S2039       S  0.75240129  0.78691312  0.52472260    -0.32900
S2040       S  0.71924788  0.91927644  0.93200725    -0.32900
H2041       H  0.70331054  0.88390428  0.89405041     0.28400
H2042       H  0.72111785  0.78454133  0.56531187     0.28400
H2043       H  0.79027127  0.83108365  0.92807628     0.19000
H2044       H  0.74191106  0.91644779  0.54435006     0.19000
C2045       C  0.82210429  0.87087536  0.61850165    -0.06800
C2046       C  0.80031238  0.82431485  0.62803518    -0.17900
C2047       C  0.82177802  0.79973528  0.63114931     0.10400
C2048       C  0.86975689  0.82156645  0.62990139    -0.06700
C2049       C  0.89187547  0.86781036  0.61587392    -0.18000
C2050       C  0.87044068  0.89305110  0.61471965     0.10400
S2051       S  0.78418273  0.73998743  0.63098985    -0.32900
S2052       S  0.90831250  0.95306216  0.61101621    -0.32900
H2053       H  0.94849321  0.95526185  0.62459082     0.28400
H2054       H  0.74323409  0.73684366  0.62066010     0.28400
H2055       H  0.76451684  0.80557915  0.63391313     0.19000
H2056       H  0.92743030  0.88569059  0.60716239     0.19000
C2057       C  0.54582181  0.86836163  0.64644878    -0.06800
C2058       C  0.52050394  0.88666070  0.67065386    -0.17900
C2059       C  0.97275602  0.86395300  0.67592347     0.10400
C2060       C  0.94703617  0.82145894  0.64924996    -0.06700
C2061       C  0.97192802  0.80171258  0.63294780    -0.18000
C2062       C  0.51870933  0.82342725  0.62817246     0.10400
S2063       S  0.94793978  0.89008935  0.71625600    -0.32900
S2064       S  0.54095459  0.79366809  0.59253361    -0.32900
H2065       H  0.53677405  0.77127042  0.64371953     0.28400
H2066       H  0.90891589  0.84895975  0.73060239     0.28400
H2067       H  0.53590069  0.92069288  0.68324266     0.19000
H2068       H  0.95485485  0.77107727  0.60998460     0.19000
C2069       C  0.59943398  0.89318975  0.93924896    -0.06800
C2070       C  0.61591035  0.86966235  0.96840657    -0.17900
C2071       C  0.62035467  0.87089206  0.52896961     0.10400
C2072       C  0.60222037  0.89166222  0.56440221    -0.06700
C2073       C  0.58501081  0.91401277  0.53496256    -0.18000
C2074       C  0.58023039  0.91282765  0.97575658     0.10400
S2075       S  0.64542145  0.84222385  0.55850060    -0.32900
S2076       S  0.55396193  0.94202872  0.94913931    -0.32900
H2077       H  0.54841903  0.96061711  0.99959558     0.28400
H2078       H  0.67203058  0.87396148  0.59739109     0.28400
H2079       H  0.62880946  0.85286833  0.94331631     0.19000
H2080       H  0.57265190  0.93178954  0.55991415     0.19000
C2081       C  0.67345724  0.62792456  0.86645831    -0.06800
C2082       C  0.69755811  0.67508216  0.86296123    -0.17900
C2083       C  0.67758324  0.70127014  0.86495819     0.10400
C2084       C  0.62972426  0.68188628  0.86434244    -0.06700
C2085       C  0.60499950  0.63446983  0.85942373    -0.18000
C2086       C  0.62529900  0.60761168  0.86342208     0.10400
S2087       S  0.71651388  0.75917965  0.87840824    -0.32900
S2088       S  0.58715783  0.54948848  0.88032374    -0.32900
H2089       H  0.54808358  0.54589814  0.85921178     0.28400
H2090       H  0.75366586  0.76265735  0.84748294     0.28400
H2091       H  0.73333383  0.69241331  0.86790613     0.19000
H2092       H  0.56871760  0.61755127  0.86067005     0.19000
C2093       C  0.67701712  0.55321005  0.87930126    -0.06800
C2094       C  0.67262083  0.53391521  0.82503260    -0.17900
C2095       C  0.66099186  0.98815642  0.82048502     0.10400
C2096       C  0.64163858  0.95871919  0.86881145    -0.06700
C2097       C  0.65924797  0.98286994  0.91928081    -0.18000
C2098       C  0.66901338  0.52325826  0.92511841     0.10400
S2099       S  0.68990603  0.97754811  0.76384228    -0.32900
S2100       S  0.65223189  0.52752475  0.99588409    -0.32900
H2101       H  0.63176923  0.55068431  0.97783235     0.28400
H2102       H  0.73057797  0.01929870  0.76430395     0.28400
H2103       H  0.68674717  0.55565910  0.78834200     0.19000
H2104       H  0.66157178  0.96730694  0.95739937     0.19000
C2105       C  0.89760239  0.78810457  0.93384768    -0.06800
C2106       C  0.93599970  0.81256257  0.96604592    -0.17900
C2107       C  0.93492063  0.81763371  0.52492761     0.10400
C2108       C  0.89795456  0.78736084  0.56081863    -0.06700
C2109       C  0.85972401  0.75624742  0.53034408    -0.18000
C2110       C  0.85763628  0.76038883  0.96759266     0.10400
S2111       S  0.98048680  0.87047308  0.54480913    -0.30900
S2112       S  0.80344108  0.73206665  0.93734452    -0.32900
H2113       H  0.77836104  0.72317207  0.98874703     0.28400
H2114       H  0.00638408  0.85111066  0.53255406     0.28400
H2115       H  0.96787268  0.83680252  0.94641440     0.19000
H2116       H  0.83071064  0.73005520  0.55312435     0.19000
C2117       C  0.95480230  0.82595662  0.84921787    -0.06800
C2118       C  0.98002037  0.87152565  0.83288325    -0.17900
C2119       C  0.52866495  0.89844877  0.83299951     0.10400
C2120       C  0.55519763  0.88101608  0.85364330    -0.06700
C2121       C  0.52938162  0.83393069  0.86400203    -0.18000
C2122       C  0.98148766  0.80667177  0.85957323     0.10400
S2123       S  0.54907770  0.95366438  0.80770636    -0.32900
S2124       S  0.95685418  0.74980948  0.88310802    -0.32900
H2125       H  0.97675817  0.76173962  0.93618858     0.28400
H2126       H  0.58305502  0.97460304  0.84503544     0.28400
H2127       H  0.96231262  0.88852068  0.82462609     0.19000
H2128       H  0.54617281  0.81741689  0.87963621     0.19000
C2129       C  0.83566732  0.88355528  0.85247828    -0.06800
C2130       C  0.86956062  0.89487002  0.89152561    -0.17900
C2131       C  0.89300717  0.87172366  0.89590354     0.10400
C2132       C  0.88168502  0.83261731  0.86218922    -0.06700
C2133       C  0.85034453  0.82433705  0.82070575    -0.18000
C2134       C  0.83076911  0.85070362  0.81409288     0.10400
S2135       S  0.94032293  0.89898661  0.94027361    -0.32900
S2136       S  0.81611192  0.85398217  0.74598705    -0.32900
H2137       H  0.79069593  0.80709467  0.74129028     0.28400
H2138       H  0.92282457  0.91770722  0.97868917     0.28400
H2139       H  0.87759786  0.92259720  0.91918711     0.19000
H2140       H  0.84408390  0.80009568  0.78839906     0.19000
C2141       C  0.67707420  0.54635996  0.64992263    -0.06800
C2142       C  0.69727174  0.52254488  0.63357404    -0.17900
C2143       C  0.66729046  0.97583909  0.60920768     0.10400
C2144       C  0.62771711  0.94744609  0.64257819    -0.06700
C2145       C  0.61837476  0.97062557  0.68484036    -0.18000
C2146       C  0.63535224  0.51881501  0.68213726     0.10400
S2147       S  0.70152936  0.95843963  0.57282265    -0.32900
S2148       S  0.60845674  0.53969635  0.72974840    -0.32900
H2149       H  0.64710696  0.57749759  0.74883379     0.28400
H2150       H  0.74298195  0.99627120  0.58633133     0.28400
H2151       H  0.73272556  0.53848312  0.63754313     0.19000
H2152       H  0.59680077  0.95153585  0.72029416     0.19000
C2153       C  0.72233717  0.61437296  0.57285946    -0.06800
C2154       C  0.71292197  0.64449672  0.54652059    -0.17900
C2155       C  0.70083260  0.63997639  0.98938605     0.10400
C2156       C  0.71751804  0.62005818  0.94940709    -0.06700
C2157       C  0.74569399  0.60748118  0.97493174    -0.18000
C2158       C  0.74489869  0.60012521  0.53325921     0.10400
S2159       S  0.65369415  0.64585235  0.98184783    -0.32900
S2160       S  0.77801835  0.57777336  0.55351897    -0.32900
H2161       H  0.76096085  0.54365773  0.51311784     0.28400
H2162       H  0.67466527  0.68922606  0.00440097     0.28400
H2163       H  0.70582920  0.66591048  0.57219286     0.19000
H2164       H  0.76212261  0.59493276  0.94790771     0.19000
C2165       C  0.67193317  0.61702264  0.65336567    -0.06800
C2166       C  0.68410750  0.65272047  0.69029512    -0.17900
C2167       C  0.66527088  0.68000004  0.68920607     0.10400
C2168       C  0.62477223  0.66644994  0.65836454    -0.06700
C2169       C  0.60707562  0.62368022  0.63575902    -0.18000
C2170       C  0.63040740  0.60164035  0.62690923     0.10400
S2171       S  0.69811667  0.73009691  0.72836896    -0.32900
S2172       S  0.59954695  0.54957688  0.59036405    -0.32900
H2173       H  0.58465065  0.56648683  0.54833797     0.28400
H2174       H  0.73558454  0.72737521  0.74262560     0.28400
H2175       H  0.70953317  0.66044644  0.71999349     0.19000
H2176       H  0.57234765  0.60359732  0.63063952     0.19000
loop_ 
_geom_bond_atom_site_label_1 
_geom_bond_atom_site_label_2 
_geom_bond_distance 
_geom_bond_site_symmetry_2 
_ccdc_geom_bond_type 
O1          Cr19   2.075       .  S
O1            C9   1.281       .  A
O2          Cr19   2.004       .  S
O2            C3   1.255       .  A
C3            O4   1.275       .  A
C3           C30   1.582       .  S
O4          Cr20   2.056       .  S
O5          Cr20   2.000       .  S
O5            C6   1.266       .  A
C6            O7   1.280       .  A
C6           C26   1.607       .  S
O7          Cr21   2.085       .  S
O8          Cr21   2.048       .  S
O8            C9   1.270       .  A
C9           C32   1.609       .  S
O10         Cr19   1.971       .  S
O10          C18   1.249       .  A
O11         Cr19   2.078       .  S
O11          C12   1.269       .  A
C12          O13   1.277       .  A
C12          C34   1.624       .  S
O13         Cr20   2.087       .  S
O14         Cr20   2.049       .  S
O14          C15   1.280       .  A
C15          O16   1.264       .  A
C15          C27   1.600       .  S
O16         Cr21   2.014       .  S
O17         Cr21   2.080       .  S
O17          C18   1.281       .  A
C18          C29   1.600       .  S
Cr19         O22   1.764       .  S
Cr20         O22   1.800       .  S
Cr21         O22   1.797       .  S
C23          C52   1.582       .  S
C23         C237   1.606       .  S
C23         C249   1.623       .  S
C23         C261   1.573       .  S
C24          C37   1.615       .  S
C24         C201   1.598       .  S
C24         C213   1.608       .  S
C24         C228   1.612       .  S
C25          C43   1.601       .  S
C25         C177   1.621       .  S
C25         C189   1.582       .  S
C25         C252   1.627       .  S
C26         C165   1.620       .  S
C26         C192   1.615       .  S
C26         C216   1.627       .  S
C27         C153   1.610       .  S
C27         C168   1.604       .  S
C27         C240   1.604       .  S
C28          C46   1.581       .  S
C28         C144   1.596       .  S
C28         C156   1.595       .  S
C28         C204   1.605       .  S
C29         C117   1.578       .  S
C29         C132   1.597       .  S
C29         C141   1.606       .  S
C30          C96   1.603       .  S
C30         C108   1.576       .  S
C30         C180   1.615       .  S
C31          C40   1.592       .  S
C31          C69   1.570       .  S
C31          C81   1.623       .  S
C31         C105   1.612       .  S
C32          C84   1.629       .  S
C32         C129   1.616       .  S
C32         C225   1.607       .  S
C33          C49   1.604       .  S
C33          C57   1.633       .  S
C33          C72   1.573       .  S
C33         C120   1.616       .  S
C34          C60   1.624       .  S
C34          C93   1.636       .  S
C34         C264   1.610       .  S
O35         Cr53   1.992       .  S
O35          C43   1.259       .  A
O36         Cr53   2.059       .  S
O36          C37   1.281       .  A
C37          O38   1.277       .  A
O38         Cr54   2.045       .  S
O39         Cr54   2.068       .  S
O39          C40   1.278       .  A
C40          O41   1.264       .  A
O41         Cr55   2.007       .  S
O42         Cr55   2.077       .  S
O42          C43   1.278       .  A
O44         Cr53   2.044       .  S
O44          C52   1.273       .  A
O45         Cr53   2.010       .  S
O45          C46   1.257       .  A
C46          O47   1.273       .  A
O47         Cr54   2.055       .  S
O48         Cr54   2.014       .  S
O48          C49   1.264       .  A
C49          O50   1.279       .  A
O50         Cr55   2.077       .  S
O51         Cr55   2.030       .  S
O51          C52   1.266       .  A
Cr53         O56   1.778       .  S
Cr54         O56   1.776       .  S
Cr55         O56   1.799       .  S
C57          C58   1.427       .  A
C57          C62   1.430       .  A
C58        C1147   1.452       .  A
C58          H67   1.081       .  S
C59          C60   1.459       .  A
C59        C1146   1.444   1_455  A
C59          S63   1.817       .  S
C60          C61   1.402       .  A
C61        C1150   1.404   1_455  A
C61          H68   1.077       .  S
C62        C1149   1.403       .  A
C62          S64   1.772       .  S
S63          H66   1.397       .  S
S64          H65   1.405       .  S
C69          C70   1.405       .  A
C69          C74   1.425       .  A
C70         C343   1.366       .  A
C70          H79   1.084       .  S
C71          C72   1.426       .  A
C71         C342   1.363   1_554  A
C71          S75   1.808       .  S
C72          C73   1.418       .  A
C73         C346   1.424   1_554  A
C73          H80   1.081       .  S
C74         C345   1.421       .  A
C74          S76   1.791       .  S
S75          H78   1.374       .  S
S76          H77   1.391       .  S
C81          C82   1.425       .  A
C81          C86   1.437       .  A
C82         C627   1.450   1_545  A
C82          H91   1.080       .  S
C83          C84   1.453       .  A
C83         C626   1.446       .  A
C83          S87   1.809       .  S
C84          C85   1.397       .  A
C85         C630   1.405       .  A
C85          H92   1.055       .  S
C86         C629   1.407   1_545  A
C86          S88   1.808       .  S
S87          H90   1.404       .  S
S88          H89   1.406       .  S
C93          C94   1.424       .  A
C93          C98   1.443       .  A
C94         C367   1.447   1_554  A
C94         H103   1.071       .  S
C95          C96   1.417       .  A
C95         C366   1.448       .  A
C95          S99   1.766       .  S
C96          C97   1.396       .  A
C97         C370   1.393       .  A
C97         H104   1.082       .  S
C98         C369   1.392   1_554  A
C98         S100   1.770       .  S
S99         H102   1.383       .  S
S100        H101   1.409       .  S
C105        C106   1.420       .  A
C105        C110   1.413       .  A
C106       C1195   1.390       .  A
C106        H115   1.075       .  S
C107        C108   1.428       .  A
C107       C1194   1.390   1_455  A
C107        S111   1.810       .  S
C108        C109   1.401       .  A
C109       C1198   1.420   1_455  A
C109        H116   1.076       .  S
C110       C1197   1.420       .  A
C110        S112   1.760       .  S
S111        H114   1.403       .  S
S112        H113   1.385       .  S
C117        C118   1.421       .  A
C117        C122   1.413       .  A
C118        C663   1.419       .  A
C118        H127   1.083       .  S
C119        C120   1.407       .  A
C119        C662   1.415   1_545  A
C119        S123   1.738       .  S
C120        C121   1.428       .  A
C121        C666   1.390   1_545  A
C121        H128   1.079       .  S
C122        C665   1.395       .  A
C122        S124   1.807   1_554  S
S123        H126   1.392       .  S
S124        H125   1.400   1_556  S
C129        C130   1.414       .  A
C129        C134   1.447       .  A
C130        C403   1.391       .  A
C130        H139   1.079       .  S
C131        C132   1.434       .  A
C131        C402   1.391   1_554  A
C131        S135   1.801       .  S
C132        C133   1.397       .  A
C133        C406   1.418   1_554  A
C133        H140   1.066       .  S
C134        C405   1.421       .  A
C134        S136   1.775       .  S
S135        H138   1.390       .  S
S136        H137   1.397       .  S
C141        C142   1.404       .  A
C141        C146   1.434       .  A
C142        C143   1.400       .  A
C142        H151   1.070       .  S
C143        C144   1.433       .  A
C143        S147   1.798       .  S
C144        C145   1.414       .  A
C145        C146   1.419       .  A
C145        H152   1.065       .  S
C146        S148   1.798       .  S
S147        H150   1.358       .  S
S148        H149   1.407       .  S
C153        C154   1.436       .  A
C153        C158   1.421       .  A
C154       C1243   1.427   1_455  A
C154        H163   1.066       .  S
C155        C156   1.425       .  A
C155       C1242   1.424       .  A
C155        S159   1.798       .  S
C156        C157   1.402       .  A
C157       C1246   1.396       .  A
C157        H164   1.070       .  S
C158       C1245   1.394   1_455  A
C158        S160   1.775       .  S
S159        H162   1.399       .  S
S160        H161   1.405       .  S
C165        C166   1.413       .  A
C165        C170   1.441       .  A
C166        C439   1.441       .  A
C166        H175   1.070       .  S
C167        C168   1.433       .  A
C167        C438   1.440   1_554  A
C167        S171   1.789       .  S
C168        C169   1.401       .  A
C169        C442   1.406   1_554  A
C169        H176   1.081       .  S
C170        C441   1.406       .  A
C170        S172   1.808       .  S
S171        H174   1.383       .  S
S172        H173   1.406       .  S
C177        C178   1.408       .  A
C177        C182   1.447       .  A
C178        C179   1.406       .  A
C178        H187   1.073       .  S
C179        C180   1.436       .  A
C179        S183   1.790       .  S
C180        C181   1.417       .  A
C181        C182   1.440       .  A
C181        H188   1.078       .  S
C182        S184   1.789       .  S
S183        H186   1.406       .  S
S184        H185   1.406       .  S
C189        C190   1.415       .  A
C189        C194   1.408       .  A
C190        C735   1.419   1_545  A
C190        H199   1.069       .  S
C191        C192   1.424       .  A
C191        C734   1.419       .  A
C191        S195   1.781       .  S
C192        C193   1.415       .  A
C193        C738   1.385       .  A
C193        H200   1.078       .  S
C194        C737   1.389   1_545  A
C194        S196   1.773       .  S
S195        H198   1.408       .  S
S196        H197   1.395       .  S
C201        C202   1.404       .  A
C201        C206   1.422       .  A
C202        C475   1.378       .  A
C202        H211   1.071       .  S
C203        C204   1.421       .  A
C203        C474   1.379   1_554  A
C203        S207   1.777       .  S
C204        C205   1.426       .  A
C205        C478   1.431   1_554  A
C205        H212   1.056       .  S
C206        C477   1.431       .  A
C206        S208   1.785       .  S
S207        H210   1.401       .  S
S208        H209   1.402       .  S
C213        C214   1.403       .  A
C213        C218   1.428       .  A
C214       C1303   1.421       .  A
C214        H223   1.075       .  S
C215        C216   1.442       .  A
C215       C1302   1.422   1_455  A
C215        S219   1.764       .  S
C216        C217   1.420       .  A
C217       C1306   1.406   1_455  A
C217        H224   1.083       .  S
C218       C1305   1.407       .  A
C218        S220   1.784       .  S
S219        H222   1.367       .  S
S220        H221   1.406       .  S
C225        C226   1.409       .  A
C225        C230   1.400       .  A
C226        C227   1.419       .  A
C226        H235   1.081       .  S
C227        C228   1.451       .  A
C227        S231   1.789       .  S
C228        C229   1.406       .  A
C229        C230   1.411       .  A
C229        H236   1.076       .  S
C230        S232   1.724       .  S
S231        H234   1.408       .  S
S232        H233   1.405       .  S
C237        C238   1.394       .  A
C237        C242   1.445       .  A
C238        C783   1.379   1_545  A
C238        H247   1.043       .  S
C239        C240   1.424       .  A
C239        C782   1.393       .  A
C239        S243   1.782       .  S
C240        C241   1.409       .  A
C241        C786   1.425       .  A
C241        H248   1.066       .  S
C242        C785   1.434   1_545  A
C242        S244   1.806       .  S
S243        H246   1.407       .  S
S244        H245   1.395       .  S
C249        C250   1.397       .  A
C249        C254   1.421       .  A
C250        C523   1.398   1_554  A
C250        H259   1.080       .  S
C251        C252   1.445       .  A
C251        C522   1.397       .  A
C251        S255   1.763       .  S
C252        C253   1.429       .  A
C253        C526   1.444       .  A
C253        H260   1.074       .  S
C254        C525   1.445   1_554  A
C254        S256   1.785       .  S
S255        H258   1.406       .  S
S256        H257   1.405       .  S
C261        C262   1.400       .  A
C261        C266   1.419       .  A
C262        C263   1.403       .  A
C262        H271   1.066       .  S
C263        C264   1.450       .  A
C263        S267   1.791       .  S
C264        C265   1.399       .  A
C265        C266   1.387       .  A
C265        H272   1.039       .  S
C266        S268   1.807       .  S
S267        H270   1.406       .  S
S268        H269   1.406       .  S
O273       Cr291   2.079       .  S
O273        C281   1.282       .  A
O274       Cr291   2.006       .  S
O274        C275   1.255       .  A
C275        O276   1.275       .  A
C275        C302   1.581       .  S
O276       Cr292   2.055       .  S
O277       Cr292   2.001       .  S
O277        C278   1.266       .  A
C278        O279   1.278       .  A
C278        C298   1.606       .  S
O279       Cr293   2.080       .  S
O280       Cr293   2.048       .  S
O280        C281   1.270       .  A
C281        C304   1.612       .  S
O282       Cr291   1.974       .  S
O282        C290   1.250       .  A
O283       Cr291   2.080       .  S
O283        C284   1.270       .  A
C284        O285   1.277       .  A
C284        C306   1.626       .  S
O285       Cr292   2.087       .  S
O286       Cr292   2.047       .  S
O286        C287   1.279       .  A
C287        O288   1.264       .  A
C287        C299   1.595       .  S
O288       Cr293   2.013       .  S
O289       Cr293   2.079       .  S
O289        C290   1.281       .  A
C290        C301   1.600       .  S
Cr291       O294   1.761       .  S
Cr292       O294   1.800       .  S
Cr293       O294   1.799       .  S
C295        C324   1.582       .  S
C295        C509   1.602       .  S
C295        C521   1.619       .  S
C295        C533   1.578       .  S
C296        C309   1.617       .  S
C296        C473   1.597       .  S
C296        C485   1.609       .  S
C296        C500   1.612       .  S
C297        C315   1.605       .  S
C297        C449   1.624       .  S
C297        C461   1.583       .  S
C297        C524   1.626       .  S
C298        C437   1.619       .  S
C298        C464   1.612       .  S
C298        C488   1.627       .  S
C299        C425   1.606       .  S
C299        C440   1.608       .  S
C299        C512   1.606       .  S
C300        C318   1.578       .  S
C300        C416   1.599       .  S
C300        C428   1.597       .  S
C300        C476   1.602       .  S
C301        C389   1.576       .  S
C301        C404   1.597       .  S
C301        C413   1.606       .  S
C302        C368   1.601       .  S
C302        C380   1.577       .  S
C302        C452   1.617       .  S
C303        C312   1.597       .  S
C303        C341   1.572       .  S
C303        C353   1.618       .  S
C303        C377   1.609       .  S
C304        C356   1.632       .  S
C304        C401   1.613       .  S
C304        C497   1.610       .  S
C305        C321   1.619       .  S
C305        C329   1.629       .  S
C305        C344   1.574       .  S
C305        C392   1.612       .  S
C306        C332   1.633       .  S
C306        C365   1.638       .  S
C306        C536   1.612       .  S
O307       Cr325   1.991       .  S
O307        C315   1.258       .  A
O308       Cr325   2.058       .  S
O308        C309   1.281       .  A
C309        O310   1.278       .  A
O310       Cr326   2.050       .  S
O311       Cr326   2.071       .  S
O311        C312   1.278       .  A
C312        O313   1.266       .  A
O313       Cr327   2.010       .  S
O314       Cr327   2.084       .  S
O314        C315   1.280       .  A
O316       Cr325   2.039       .  S
O316        C324   1.272       .  A
O317       Cr325   2.006       .  S
O317        C318   1.256       .  A
C318        O319   1.275       .  A
O319       Cr326   2.055       .  S
O320       Cr326   2.032       .  S
O320        C321   1.269       .  A
C321        O322   1.282       .  A
O322       Cr327   2.086       .  S
O323       Cr327   2.031       .  S
O323        C324   1.268       .  A
Cr325       O328   1.782       .  S
Cr326       O328   1.773       .  S
Cr327       O328   1.801       .  S
C329        C330   1.427       .  A
C329        C334   1.430       .  A
C330       C1419   1.444       .  A
C330        H339   1.074       .  S
C331       C1418   1.449   1_455  A
C331        C332   1.466       .  A
C331        S335   1.816       .  S
C332        C333   1.402       .  A
C333       C1422   1.404   1_455  A
C333        H340   1.077       .  S
C334       C1421   1.404       .  A
C334        S336   1.774       .  S
S335        H338   1.397       .  S
S336        H337   1.404       .  S
C341        C342   1.409       .  A
C341        C346   1.423       .  A
C342        H351   1.080       .  S
C343        C344   1.431       .  A
C343        S347   1.805       .  S
C344        C345   1.414       .  A
C345        H352   1.080       .  S
C346        S348   1.790       .  S
S347        H350   1.371       .  S
S348        H349   1.392       .  S
C353        C354   1.420       .  A
C353        C358   1.432       .  A
C354        C899   1.445   1_545  A
C354        H363   1.080       .  S
C355        C898   1.447       .  A
C355        C356   1.454       .  A
C355        S359   1.809       .  S
C356        C357   1.398       .  A
C357        C902   1.407       .  A
C357        H364   1.057       .  S
C358        C901   1.408   1_545  A
C358        S360   1.808       .  S
S359        H362   1.403       .  S
S360        H361   1.405       .  S
C365        C366   1.427       .  A
C365        C370   1.442       .  A
C366        H375   1.071       .  S
C367        C368   1.419       .  A
C367        S371   1.767       .  S
C368        C369   1.393       .  A
C369        H376   1.082       .  S
C370        S372   1.772       .  S
S371        H374   1.382       .  S
S372        H373   1.410       .  S
C377        C378   1.420       .  A
C377        C382   1.410       .  A
C378       C1467   1.392       .  A
C378        H387   1.075       .  S
C379       C1466   1.391   1_455  A
C379        C380   1.428       .  A
C379        S383   1.812       .  S
C380        C381   1.402       .  A
C381       C1470   1.420   1_455  A
C381        H388   1.075       .  S
C382       C1469   1.419       .  A
C382        S384   1.752       .  S
S383        H386   1.402       .  S
S384        H385   1.395       .  S
C389        C390   1.421       .  A
C389        C394   1.413       .  A
C390        C935   1.418       .  A
C390        H399   1.083       .  S
C391        C934   1.419   1_545  A
C391        C392   1.399       .  A
C391        S395   1.733       .  S
C392        C393   1.429       .  A
C393        C938   1.394   1_545  A
C393        H400   1.079       .  S
C394        C937   1.393       .  A
C394        S396   1.807       .  S
S395        H398   1.398       .  S
S396        H397   1.401       .  S
C401        C402   1.413       .  A
C401        C406   1.445       .  A
C402        H411   1.080       .  S
C403        C404   1.432       .  A
C403        S407   1.799       .  S
C404        C405   1.398       .  A
C405        H412   1.068       .  S
C406        S408   1.774       .  S
S407        H410   1.391       .  S
S408        H409   1.396       .  S
C413        C414   1.405       .  A
C413        C418   1.433       .  A
C414        C415   1.402       .  A
C414        H423   1.071       .  S
C415        C416   1.434       .  A
C415        S419   1.796       .  S
C416        C417   1.414       .  A
C417        C418   1.418       .  A
C417        H424   1.064       .  S
C418        S420   1.796       .  S
S419        H422   1.355       .  S
S420        H421   1.407       .  S
C425        C426   1.433       .  A
C425        C430   1.422       .  A
C426       C1515   1.430   1_455  A
C426        H435   1.066       .  S
C427       C1514   1.426       .  A
C427        C428   1.426       .  A
C427        S431   1.797       .  S
C428        C429   1.402       .  A
C429       C1518   1.396       .  A
C429        H436   1.071       .  S
C430       C1517   1.393   1_455  A
C430        S432   1.776       .  S
S431        H434   1.399       .  S
S432        H433   1.404       .  S
C437        C438   1.412       .  A
C437        C442   1.441       .  A
C438        H447   1.069       .  S
C439        C440   1.432       .  A
C439        S443   1.789       .  S
C440        C441   1.401       .  A
C441        H448   1.081       .  S
C442        S444   1.808       .  S
S443        H446   1.385       .  S
S444        H445   1.406       .  S
C449        C450   1.406       .  A
C449        C454   1.448       .  A
C450        C451   1.406       .  A
C450        H459   1.073       .  S
C451        C452   1.434       .  A
C451        S455   1.788       .  S
C452        C453   1.419       .  A
C453        C454   1.443       .  A
C453        H460   1.077       .  S
C454        S456   1.790       .  S
S455        H458   1.406       .  S
S456        H457   1.406       .  S
C461        C462   1.416       .  A
C461        C466   1.410       .  A
C462       C1007   1.417   1_545  A
C462        H471   1.069       .  S
C463       C1006   1.418       .  A
C463        C464   1.422       .  A
C463        S467   1.789       .  S
C464        C465   1.414       .  A
C465       C1010   1.384       .  A
C465        H472   1.079       .  S
C466       C1009   1.387   1_545  A
C466        S468   1.769       .  S
S467        H470   1.409       .  S
S468        H469   1.394       .  S
C473        C474   1.404       .  A
C473        C478   1.422       .  A
C474        H483   1.070       .  S
C475        C476   1.419       .  A
C475        S479   1.775       .  S
C476        C477   1.425       .  A
C477        H484   1.058       .  S
C478        S480   1.787       .  S
S479        H482   1.400       .  S
S480        H481   1.402       .  S
C485        C486   1.404       .  A
C485        C490   1.427       .  A
C486       C1575   1.422       .  A
C486        H495   1.075       .  S
C487       C1574   1.423   1_455  A
C487        C488   1.443       .  A
C487        S491   1.767       .  S
C488        C489   1.420       .  A
C489       C1578   1.406   1_455  A
C489        H496   1.083       .  S
C490       C1577   1.407       .  A
C490        S492   1.783       .  S
S491        H494   1.368       .  S
S492        H493   1.405       .  S
C497        C498   1.410       .  A
C497        C502   1.402       .  A
C498        C499   1.420       .  A
C498        H507   1.080       .  S
C499        C500   1.450       .  A
C499        S503   1.791       .  S
C500        C501   1.405       .  A
C501        C502   1.411       .  A
C501        H508   1.076       .  S
C502        S504   1.724       .  S
S503        H506   1.408       .  S
S504        H505   1.405       .  S
C509        C510   1.396       .  A
C509        C514   1.443       .  A
C510       C1055   1.380   1_545  A
C510        H519   1.046       .  S
C511       C1054   1.383       .  A
C511        C512   1.419       .  A
C511        S515   1.792       .  S
C512        C513   1.412       .  A
C513       C1058   1.433       .  A
C513        H520   1.069       .  S
C514       C1057   1.433   1_545  A
C514        S516   1.805       .  S
S515        H518   1.406       .  S
S516        H517   1.396       .  S
C521        C522   1.395       .  A
C521        C526   1.419       .  A
C522        H531   1.079       .  S
C523        C524   1.444       .  A
C523        S527   1.766       .  S
C524        C525   1.428       .  A
C525        H532   1.074       .  S
C526        S528   1.785       .  S
S527        H530   1.407       .  S
S528        H529   1.404       .  S
C533        C534   1.400       .  A
C533        C538   1.421       .  A
C534        C535   1.404       .  A
C534        H543   1.065       .  S
C535        C536   1.451       .  A
C535        S539   1.791       .  S
C536        C537   1.398       .  A
C537        C538   1.391       .  A
C537        H544   1.042       .  S
C538        S540   1.808       .  S
S539        H542   1.405       .  S
S540        H541   1.406       .  S
O545       Cr563   2.072       .  S
O545        C553   1.277       .  A
O546       Cr563   2.004       .  S
O546        C547   1.252       .  A
C547        O548   1.276       .  A
C547        C574   1.583       .  S
O548       Cr564   2.062       .  S
O549       Cr564   2.008       .  S
O549        C550   1.269       .  A
C550        O551   1.279       .  A
C550        C570   1.609       .  S
O551       Cr565   2.084       .  S
O552       Cr565   2.048       .  S
O552        C553   1.268       .  A
C553        C576   1.602       .  S
O554       Cr563   1.985       .  S
O554        C562   1.248       .  A
O555       Cr563   2.083       .  S
O555        C556   1.272       .  A
C556        O557   1.280       .  A
C556        C578   1.630       .  S
O557       Cr564   2.094       .  S
O558       Cr564   2.047       .  S
O558        C559   1.279       .  A
C559        O560   1.262       .  A
C559        C571   1.592       .  S
O560       Cr565   2.008       .  S
O561       Cr565   2.075       .  S
O561        C562   1.279       .  A
C562        C573   1.598       .  S
Cr563       O566   1.752       .  S
Cr564       O566   1.794       .  S
Cr565       O566   1.798       .  S
C567        C596   1.584       .  S
C567        C781   1.599       .  S
C567        C793   1.625       .  S
C567        C805   1.574       .  S
C568        C581   1.619       .  S
C568        C745   1.596       .  S
C568        C757   1.606       .  S
C568        C772   1.610       .  S
C569        C587   1.603       .  S
C569        C721   1.621       .  S
C569        C733   1.577       .  S
C569        C796   1.623       .  S
C570        C709   1.619       .  S
C570        C736   1.622       .  S
C570        C760   1.628       .  S
C571        C697   1.601       .  S
C571        C712   1.610       .  S
C571        C784   1.605       .  S
C572        C590   1.581       .  S
C572        C688   1.597       .  S
C572        C700   1.609       .  S
C572        C748   1.609       .  S
C573        C661   1.569       .  S
C573        C676   1.598       .  S
C573        C685   1.608       .  S
C574        C640   1.602       .  S
C574        C652   1.577       .  S
C574        C724   1.620       .  S
C575        C584   1.591       .  S
C575        C613   1.574       .  S
C575        C625   1.616       .  S
C575        C649   1.610       .  S
C576        C628   1.636       .  S
C576        C673   1.622       .  S
C576        C769   1.619       .  S
C577        C593   1.618       .  S
C577        C601   1.633       .  S
C577        C616   1.581       .  S
C577        C664   1.619       .  S
C578        C604   1.627       .  S
C578        C637   1.636       .  S
C578        C808   1.613       .  S
O579       Cr597   1.992       .  S
O579        C587   1.258       .  A
O580       Cr597   2.060       .  S
O580        C581   1.283       .  A
C581        O582   1.276       .  A
O582       Cr598   2.046       .  S
O583       Cr598   2.065       .  S
O583        C584   1.277       .  A
C584        O585   1.266       .  A
O585       Cr599   2.007       .  S
O586       Cr599   2.081       .  S
O586        C587   1.281       .  A
O588       Cr597   2.048       .  S
O588        C596   1.272       .  A
O589       Cr597   2.007       .  S
O589        C590   1.255       .  A
C590        O591   1.274       .  A
O591       Cr598   2.056       .  S
O592       Cr598   2.026       .  S
O592        C593   1.267       .  A
C593        O594   1.280       .  A
O594       Cr599   2.088       .  S
O595       Cr599   2.021       .  S
O595        C596   1.266       .  A
Cr597       O600   1.779       .  S
Cr598       O600   1.778       .  S
Cr599       O600   1.802       .  S
C601        C602   1.427       .  A
C601        C606   1.431       .  A
C602       C1691   1.452       .  A
C602        H611   1.081       .  S
C603       C1690   1.446   1_455  A
C603        C604   1.460       .  A
C603        S607   1.815       .  S
C604        C605   1.403       .  A
C605       C1694   1.405   1_455  A
C605        H612   1.076       .  S
C606       C1693   1.404       .  A
C606        S608   1.773       .  S
S607        H610   1.396       .  S
S608        H609   1.405       .  S
C613        C614   1.408       .  A
C613        C618   1.424       .  A
C614        C887   1.371       .  A
C614        H623   1.083       .  S
C615        C886   1.369   1_554  A
C615        C616   1.430       .  A
C615        S619   1.806       .  S
C616        C617   1.415       .  A
C617        C890   1.423   1_554  A
C617        H624   1.080       .  S
C618        C889   1.423       .  A
C618        S620   1.791       .  S
S619        H622   1.375       .  S
S620        H621   1.392       .  S
C625        C626   1.422       .  A
C625        C630   1.436       .  A
C626        H635   1.080       .  S
C627        C628   1.452       .  A
C627        S631   1.810       .  S
C628        C629   1.397       .  A
C629        H636   1.055       .  S
C630        S632   1.808       .  S
S631        H634   1.403   1_565  S
S632        H633   1.406       .  S
C637        C638   1.424       .  A
C637        C642   1.443       .  A
C638        C911   1.447   1_554  A
C638        H647   1.070       .  S
C639        C910   1.446       .  A
C639        C640   1.419       .  A
C639        S643   1.767       .  S
C640        C641   1.394       .  A
C641        C914   1.393       .  A
C641        H648   1.082       .  S
C642        C913   1.391   1_554  A
C642        S644   1.771       .  S
S643        H646   1.382       .  S
S644        H645   1.409       .  S
C649        C650   1.419       .  A
C649        C654   1.414       .  A
C650       C1739   1.387       .  A
C650        H659   1.076       .  S
C651       C1738   1.392   1_455  A
C651        C652   1.429       .  A
C651        S655   1.812       .  S
C652        C653   1.403       .  A
C653       C1742   1.420   1_455  A
C653        H660   1.075       .  S
C654       C1741   1.419       .  A
C654        S656   1.759       .  S
S655        H658   1.402       .  S
S656        H657   1.384       .  S
C661        C662   1.416       .  A
C661        C666   1.411       .  A
C662        H671   1.083       .  S
C663        C664   1.406       .  A
C663        S667   1.744       .  S
C664        C665   1.430       .  A
C665        H672   1.079       .  S
C666        S668   1.805   1_554  S
S667        H670   1.389       .  S
S668        H669   1.400   1_556  S
C673        C674   1.417       .  A
C673        C678   1.449       .  A
C674        C947   1.396       .  A
C674        H683   1.079       .  S
C675        C946   1.395   1_554  A
C675        C676   1.430       .  A
C675        S679   1.799       .  S
C676        C677   1.399       .  A
C677        C950   1.419   1_554  A
C677        H684   1.067       .  S
C678        C949   1.421       .  A
C678        S680   1.775       .  S
S679        H682   1.392       .  S
S680        H681   1.396       .  S
C685        C686   1.397       .  A
C685        C690   1.437       .  A
C686        C687   1.400       .  A
C686        H695   1.070       .  S
C687        C688   1.434       .  A
C687        S691   1.799       .  S
C688        C689   1.414       .  A
C689        C690   1.422       .  A
C689        H696   1.068       .  S
C690        S692   1.800       .  S
S691        H694   1.361       .  S
S692        H693   1.406       .  S
C697        C698   1.432       .  A
C697        C702   1.421       .  A
C698       C1787   1.428   1_455  A
C698        H707   1.066       .  S
C699       C1786   1.432       .  A
C699        C700   1.437       .  A
C699        S703   1.797       .  S
C700        C701   1.404       .  A
C701       C1790   1.395       .  A
C701        H708   1.071       .  S
C702       C1789   1.390   1_455  A
C702        S704   1.776       .  S
S703        H706   1.397       .  S
S704        H705   1.405       .  S
C709        C710   1.413       .  A
C709        C714   1.441       .  A
C710        C983   1.440       .  A
C710        H719   1.069       .  S
C711        C982   1.439   1_554  A
C711        C712   1.433       .  A
C711        S715   1.788       .  S
C712        C713   1.402       .  A
C713        C986   1.406   1_554  A
C713        H720   1.081       .  S
C714        C985   1.405       .  A
C714        S716   1.810       .  S
S715        H718   1.383       .  S
S716        H717   1.406       .  S
C721        C722   1.404       .  A
C721        C726   1.447       .  A
C722        C723   1.407       .  A
C722        H731   1.073       .  S
C723        C724   1.436       .  A
C723        S727   1.787       .  S
C724        C725   1.419       .  A
C725        C726   1.442       .  A
C725        H732   1.079       .  S
C726        S728   1.785       .  S
S727        H730   1.405       .  S
S728        H729   1.408       .  S
C733        C734   1.416       .  A
C733        C738   1.411       .  A
C734        H743   1.072       .  S
C735        C736   1.428       .  A
C735        S739   1.787       .  S
C736        C737   1.419       .  A
C737        H744   1.078       .  S
C738        S740   1.771       .  S
S739        H742   1.408   1_565  S
S740        H741   1.398       .  S
C745        C746   1.402       .  A
C745        C750   1.426       .  A
C746       C1019   1.379       .  A
C746        H755   1.073       .  S
C747       C1018   1.382   1_554  A
C747        C748   1.416       .  A
C747        S751   1.774       .  S
C748        C749   1.431       .  A
C749       C1022   1.430   1_554  A
C749        H756   1.055       .  S
C750       C1021   1.432       .  A
C750        S752   1.787       .  S
S751        H754   1.400       .  S
S752        H753   1.403       .  S
C757        C758   1.404       .  A
C757        C762   1.424       .  A
C758       C1847   1.422       .  A
C758        H767   1.074       .  S
C759       C1846   1.425   1_455  A
C759        C760   1.441       .  A
C759        S763   1.772       .  S
C760        C761   1.421       .  A
C761       C1850   1.408   1_455  A
C761        H768   1.083       .  S
C762       C1849   1.407       .  A
C762        S764   1.784       .  S
S763        H766   1.372       .  S
S764        H765   1.407       .  S
C769        C770   1.416       .  A
C769        C774   1.425       .  A
C770        C771   1.421       .  A
C770        H779   1.081       .  S
C771        C772   1.446       .  A
C771        S775   1.789       .  S
C772        C773   1.393       .  A
C773        C774   1.407       .  A
C773        H780   1.070       .  S
C774        S776   1.742       .  S
S775        H778   1.408       .  S
S776        H777   1.401       .  S
C781        C782   1.390       .  A
C781        C786   1.441       .  A
C782        H791   1.048       .  S
C783        C784   1.414       .  A
C783        S787   1.787       .  S
C784        C785   1.412       .  A
C785        H792   1.068       .  S
C786        S788   1.808       .  S
S787        H790   1.405       .  S
S788        H789   1.394       .  S
C793        C794   1.401       .  A
C793        C798   1.423       .  A
C794       C1067   1.399   1_554  A
C794        H803   1.080       .  S
C795       C1066   1.396       .  A
C795        C796   1.443       .  A
C795        S799   1.766       .  S
C796        C797   1.428       .  A
C797       C1070   1.444       .  A
C797        H804   1.074       .  S
C798       C1069   1.441   1_554  A
C798        S800   1.756       .  S
S799        H802   1.407       .  S
S800        H801   1.403       .  S
C805        C806   1.395       .  A
C805        C810   1.424       .  A
C806        C807   1.406       .  A
C806        H815   1.066       .  S
C807        C808   1.448       .  A
C807        S811   1.776       .  S
C808        C809   1.396       .  A
C809        C810   1.388       .  A
C809        H816   1.041       .  S
C810        S812   1.802       .  S
S811        H814   1.401       .  S
S812        H813   1.407       .  S
O817       Cr835   2.081       .  S
O817        C825   1.282       .  A
O818       Cr835   2.006       .  S
O818        C819   1.255       .  A
C819        O820   1.275       .  A
C819        C846   1.580       .  S
O820       Cr836   2.052       .  S
O821       Cr836   2.003       .  S
O821        C822   1.266       .  A
C822        O823   1.279       .  A
C822        C842   1.607       .  S
O823       Cr837   2.085       .  S
O824       Cr837   2.050       .  S
O824        C825   1.270       .  A
C825        C848   1.617       .  S
O826       Cr835   1.979       .  S
O826        C834   1.253       .  A
O827       Cr835   2.080       .  S
O827        C828   1.270       .  A
C828        O829   1.276       .  A
C828        C850   1.622       .  S
O829       Cr836   2.083       .  S
O830       Cr836   2.046       .  S
O830        C831   1.279       .  A
C831        O832   1.263       .  A
C831        C843   1.593       .  S
O832       Cr837   2.013       .  S
O833       Cr837   2.079       .  S
O833        C834   1.281       .  A
C834        C845   1.601       .  S
Cr835       O838   1.763       .  S
Cr836       O838   1.801       .  S
Cr837       O838   1.794       .  S
C839        C868   1.582       .  S
C839       C1053   1.607       .  S
C839       C1065   1.621       .  S
C839       C1077   1.570       .  S
C840        C853   1.615       .  S
C840       C1017   1.600       .  S
C840       C1029   1.609       .  S
C840       C1044   1.609       .  S
C841        C859   1.606       .  S
C841        C993   1.620       .  S
C841       C1005   1.582       .  S
C841       C1068   1.619       .  S
C842        C981   1.619       .  S
C842       C1008   1.617       .  S
C842       C1032   1.628       .  S
C843        C969   1.604       .  S
C843        C984   1.607       .  S
C843       C1056   1.604       .  S
C844        C862   1.580       .  S
C844        C960   1.598       .  S
C844        C972   1.596       .  S
C844       C1020   1.602       .  S
C845        C933   1.575       .  S
C845        C948   1.603       .  S
C845        C957   1.602       .  S
C846        C912   1.602       .  S
C846        C924   1.577       .  S
C846        C996   1.617       .  S
C847        C856   1.592       .  S
C847        C885   1.573       .  S
C847        C897   1.618       .  S
C847        C921   1.610       .  S
C848        C900   1.639       .  S
C848        C945   1.616       .  S
C848       C1041   1.607       .  S
C849        C865   1.616       .  S
C849        C873   1.633       .  S
C849        C888   1.582       .  S
C849        C936   1.617       .  S
C850        C876   1.630       .  S
C850        C909   1.635       .  S
C850       C1080   1.611       .  S
O851       Cr869   1.993       .  S
O851        C859   1.258       .  A
O852       Cr869   2.059       .  S
O852        C853   1.281       .  A
C853        O854   1.278       .  A
O854       Cr870   2.049       .  S
O855       Cr870   2.065       .  S
O855        C856   1.276       .  A
C856        O857   1.266       .  A
O857       Cr871   2.008       .  S
O858       Cr871   2.082       .  S
O858        C859   1.280       .  A
O860       Cr869   2.040       .  S
O860        C868   1.273       .  A
O861       Cr869   2.010       .  S
O861        C862   1.258       .  A
C862        O863   1.274       .  A
O863       Cr870   2.055       .  S
O864       Cr870   2.025       .  S
O864        C865   1.267       .  A
C865        O866   1.280       .  A
O866       Cr871   2.084       .  S
O867       Cr871   2.031       .  S
O867        C868   1.268       .  A
Cr869       O872   1.780       .  S
Cr870       O872   1.777       .  S
Cr871       O872   1.801       .  S
C873        C874   1.429       .  A
C873        C878   1.430       .  A
C874       C1963   1.453       .  A
C874        H883   1.081       .  S
C875       C1962   1.445   1_455  A
C875        C876   1.460       .  A
C875        S879   1.818       .  S
C876        C877   1.406       .  A
C877       C1966   1.408   1_455  A
C877        H884   1.076       .  S
C878       C1965   1.404       .  A
C878        S880   1.773       .  S
S879        H882   1.397       .  S
S880        H881   1.406       .  S
C885        C886   1.408       .  A
C885        C890   1.425       .  A
C886        H895   1.083       .  S
C887        C888   1.431       .  A
C887        S891   1.807       .  S
C888        C889   1.416       .  A
C889        H896   1.079       .  S
C890        S892   1.794       .  S
S891        H894   1.374       .  S
S892        H893   1.392       .  S
C897        C898   1.422       .  A
C897        C902   1.435       .  A
C898        H907   1.080       .  S
C899        C900   1.459       .  A
C899        S903   1.813       .  S
C900        C901   1.404       .  A
C901        H908   1.059       .  S
C902        S904   1.807       .  S
S903        H906   1.407   1_565  S
S904        H905   1.404       .  S
C909        C910   1.424       .  A
C909        C914   1.445       .  A
C910        H919   1.072       .  S
C911        C912   1.419       .  A
C911        S915   1.768       .  S
C912        C913   1.393       .  A
C913        H920   1.082       .  S
C914        S916   1.777       .  S
S915        H918   1.382       .  S
S916        H917   1.409       .  S
C921        C922   1.420       .  A
C921        C926   1.413       .  A
C922       C2011   1.389       .  A
C922        H931   1.075       .  S
C923       C2010   1.390   1_455  A
C923        C924   1.428       .  A
C923        S927   1.808       .  S
C924        C925   1.402       .  A
C925       C2014   1.420   1_455  A
C925        H932   1.075       .  S
C926       C2013   1.419       .  A
C926        S928   1.760       .  S
S927        H930   1.403       .  S
S928        H929   1.383       .  S
C933        C934   1.420       .  A
C933        C938   1.413       .  A
C934        H943   1.083       .  S
C935        C936   1.406       .  A
C935        S939   1.742       .  S
C936        C937   1.429       .  A
C937        H944   1.080       .  S
C938        S940   1.808       .  S
S939        H942   1.388       .  S
S940        H941   1.402       .  S
C945        C946   1.416       .  A
C945        C950   1.443       .  A
C946        H955   1.079       .  S
C947        C948   1.434       .  A
C947        S951   1.801       .  S
C948        C949   1.398       .  A
C949        H956   1.068       .  S
C950        S952   1.772       .  S
S951        H954   1.392       .  S
S952        H953   1.397       .  S
C957        C958   1.405       .  A
C957        C962   1.433       .  A
C958        C959   1.401       .  A
C958        H967   1.072       .  S
C959        C960   1.435       .  A
C959        S963   1.799       .  S
C960        C961   1.414       .  A
C961        C962   1.416       .  A
C961        H968   1.060       .  S
C962        S964   1.800       .  S
S963        H966   1.357       .  S
S964        H965   1.407       .  S
C969        C970   1.432       .  A
C969        C974   1.422       .  A
C970       C2059   1.430   1_455  A
C970        H979   1.066       .  S
C971       C2058   1.427       .  A
C971        C972   1.428       .  A
C971        S975   1.794       .  S
C972        C973   1.402       .  A
C973       C2062   1.392       .  A
C973        H980   1.073       .  S
C974       C2061   1.392   1_455  A
C974        S976   1.775       .  S
S975        H978   1.397       .  S
S976        H977   1.405       .  S
C981        C982   1.412       .  A
C981        C986   1.442       .  A
C982        H991   1.069       .  S
C983        C984   1.430       .  A
C983        S987   1.789       .  S
C984        C985   1.403       .  A
C985        H992   1.081       .  S
C986        S988   1.809       .  S
S987        H990   1.385       .  S
S988        H989   1.406       .  S
C993        C994   1.406       .  A
C993        C998   1.445       .  A
C994        C995   1.404       .  A
C994       H1003   1.074       .  S
C995        C996   1.434       .  A
C995        S999   1.787       .  S
C996        C997   1.420       .  A
C997        C998   1.443       .  A
C997       H1004   1.079       .  S
C998       S1000   1.788       .  S
S999       H1002   1.407       .  S
S1000      H1001   1.407       .  S
C1005      C1006   1.418       .  A
C1005      C1010   1.419       .  A
C1006      H1015   1.070       .  S
C1007      C1008   1.427       .  A
C1007      S1011   1.790       .  S
C1008      C1009   1.416       .  A
C1009      H1016   1.078       .  S
C1010      S1012   1.776       .  S
S1011      H1014   1.409   1_565  S
S1012      H1013   1.401       .  S
C1017      C1018   1.408       .  A
C1017      C1022   1.421       .  A
C1018      H1027   1.069       .  S
C1019      C1020   1.421       .  A
C1019      S1023   1.776       .  S
C1020      C1021   1.423       .  A
C1021      H1028   1.061       .  S
C1022      S1024   1.791       .  S
S1023      H1026   1.394       .  S
S1024      H1025   1.402       .  S
C1029      C1030   1.404       .  A
C1029      C1034   1.428       .  A
C1030      C2119   1.421       .  A
C1030      H1039   1.076       .  S
C1031      C2118   1.423   1_455  A
C1031      C1032   1.441       .  A
C1031      S1035   1.770       .  S
C1032      C1033   1.421       .  A
C1033      C2122   1.408   1_455  A
C1033      H1040   1.083       .  S
C1034      C2121   1.407       .  A
C1034      S1036   1.781       .  S
S1035      H1038   1.371       .  S
S1036      H1037   1.406       .  S
C1041      C1042   1.411       .  A
C1041      C1046   1.402       .  A
C1042      C1043   1.415       .  A
C1042      H1051   1.079       .  S
C1043      C1044   1.445       .  A
C1043      S1047   1.787       .  S
C1044      C1045   1.409       .  A
C1045      C1046   1.413       .  A
C1045      H1052   1.077       .  S
C1046      S1048   1.733       .  S
S1047      H1050   1.408       .  S
S1048      H1049   1.405       .  S
C1053      C1054   1.395       .  A
C1053      C1058   1.444       .  A
C1054      H1063   1.039       .  S
C1055      C1056   1.416       .  A
C1055      S1059   1.789       .  S
C1056      C1057   1.410       .  A
C1057      H1064   1.068       .  S
C1058      S1060   1.808       .  S
S1059      H1062   1.405       .  S
S1060      H1061   1.393       .  S
C1065      C1066   1.397       .  A
C1065      C1070   1.418       .  A
C1066      H1075   1.080       .  S
C1067      C1068   1.442       .  A
C1067      S1071   1.765       .  S
C1068      C1069   1.419       .  A
C1069      H1076   1.074       .  S
C1070      S1072   1.781       .  S
S1071      H1074   1.407   1_556  S
S1072      H1073   1.405       .  S
C1077      C1078   1.400       .  A
C1077      C1082   1.418       .  A
C1078      C1079   1.404       .  A
C1078      H1087   1.067       .  S
C1079      C1080   1.455       .  A
C1079      S1083   1.793       .  S
C1080      C1081   1.396       .  A
C1081      C1082   1.385       .  A
C1081      H1088   1.040       .  S
C1082      S1084   1.803       .  S
S1083      H1086   1.407       .  S
S1084      H1085   1.408       .  S
O1089     Cr1107   2.079       .  S
O1089      C1097   1.281       .  A
O1090     Cr1107   2.000       .  S
O1090      C1091   1.254       .  A
C1091      O1092   1.274       .  A
C1091      C1118   1.581       .  S
O1092     Cr1108   2.055       .  S
O1093     Cr1108   2.003       .  S
O1093      C1094   1.267       .  A
C1094      O1095   1.280       .  A
C1094      C1114   1.607       .  S
O1095     Cr1109   2.084       .  S
O1096     Cr1109   2.054       .  S
O1096      C1097   1.272       .  A
C1097      C1120   1.620       .  S
O1098     Cr1107   1.972       .  S
O1098      C1106   1.249       .  A
O1099     Cr1107   2.079       .  S
O1099      C1100   1.270       .  A
C1100      O1101   1.277       .  A
C1100      C1122   1.624       .  S
O1101     Cr1108   2.088       .  S
O1102     Cr1108   2.054       .  S
O1102      C1103   1.281       .  A
C1103      O1104   1.264       .  A
C1103      C1115   1.602       .  S
O1104     Cr1109   2.016       .  S
O1105     Cr1109   2.076       .  S
O1105      C1106   1.280       .  A
C1106      C1117   1.597       .  S
Cr1107     O1110   1.763       .  S
Cr1108     O1110   1.802       .  S
Cr1109     O1110   1.795       .  S
C1111      C1140   1.582       .  S
C1111      C1325   1.602       .  S
C1111      C1337   1.620       .  S
C1111      C1349   1.578       .  S
C1112      C1125   1.610       .  S
C1112      C1289   1.597       .  S
C1112      C1301   1.606       .  S
C1112      C1316   1.608       .  S
C1113      C1131   1.604       .  S
C1113      C1265   1.622       .  S
C1113      C1277   1.582       .  S
C1113      C1340   1.632       .  S
C1114      C1253   1.621       .  S
C1114      C1280   1.609       .  S
C1114      C1304   1.621       .  S
C1115      C1241   1.612       .  S
C1115      C1256   1.604       .  S
C1115      C1328   1.607       .  S
C1116      C1134   1.580       .  S
C1116      C1232   1.596       .  S
C1116      C1244   1.599       .  S
C1116      C1292   1.607       .  S
C1117      C1205   1.579       .  S
C1117      C1220   1.597       .  S
C1117      C1229   1.609       .  S
C1118      C1184   1.602       .  S
C1118      C1196   1.575       .  S
C1118      C1268   1.616       .  S
C1119      C1128   1.598       .  S
C1119      C1157   1.571       .  S
C1119      C1169   1.616       .  S
C1119      C1193   1.610       .  S
C1120      C1172   1.634       .  S
C1120      C1217   1.613       .  S
C1120      C1313   1.609       .  S
C1121      C1137   1.613       .  S
C1121      C1145   1.632       .  S
C1121      C1160   1.572       .  S
C1121      C1208   1.611       .  S
C1122      C1148   1.634       .  S
C1122      C1181   1.636       .  S
C1122      C1352   1.613       .  S
O1123     Cr1141   1.987       .  S
O1123      C1131   1.257       .  A
O1124     Cr1141   2.053       .  S
O1124      C1125   1.279       .  A
C1125      O1126   1.277       .  A
O1126     Cr1142   2.043       .  S
O1127     Cr1142   2.071       .  S
O1127      C1128   1.278       .  A
C1128      O1129   1.266       .  A
O1129     Cr1143   2.010       .  S
O1130     Cr1143   2.085       .  S
O1130      C1131   1.280       .  A
O1132     Cr1141   2.036       .  S
O1132      C1140   1.271       .  A
O1133     Cr1141   2.008       .  S
O1133      C1134   1.256       .  A
C1134      O1135   1.275       .  A
O1135     Cr1142   2.056       .  S
O1136     Cr1142   2.026       .  S
O1136      C1137   1.267       .  A
C1137      O1138   1.282       .  A
O1138     Cr1143   2.083       .  S
O1139     Cr1143   2.035       .  S
O1139      C1140   1.268       .  A
Cr1141     O1144   1.780       .  S
Cr1142     O1144   1.770       .  S
Cr1143     O1144   1.797       .  S
C1145      C1146   1.428       .  A
C1145      C1150   1.431       .  A
C1146      H1155   1.072       .  S
C1147      C1148   1.466       .  A
C1147      S1151   1.815       .  S
C1148      C1149   1.402       .  A
C1149      H1156   1.077       .  S
C1150      S1152   1.773       .  S
S1151      H1154   1.397       .  S
S1152      H1153   1.404       .  S
C1157      C1158   1.409       .  A
C1157      C1162   1.422       .  A
C1158      C1431   1.363       .  A
C1158      H1167   1.080       .  S
C1159      C1430   1.364   1_554  A
C1159      C1160   1.428       .  A
C1159      S1163   1.807       .  S
C1160      C1161   1.416       .  A
C1161      C1434   1.422   1_554  A
C1161      H1168   1.080       .  S
C1162      C1433   1.424       .  A
C1162      S1164   1.789       .  S
S1163      H1166   1.372       .  S
S1164      H1165   1.391       .  S
C1169      C1170   1.420       .  A
C1169      C1174   1.432       .  A
C1170      C1715   1.443   1_545  A
C1170      H1179   1.081       .  S
C1171      C1714   1.447       .  A
C1171      C1172   1.458       .  A
C1171      S1175   1.816       .  S
C1172      C1173   1.401       .  A
C1173      C1718   1.405       .  A
C1173      H1180   1.059       .  S
C1174      C1717   1.407   1_545  A
C1174      S1176   1.807       .  S
S1175      H1178   1.405       .  S
S1176      H1177   1.405       .  S
C1181      C1182   1.427       .  A
C1181      C1186   1.441       .  A
C1182      C1455   1.447   1_554  A
C1182      H1191   1.070       .  S
C1183      C1454   1.448       .  A
C1183      C1184   1.417       .  A
C1183      S1187   1.771       .  S
C1184      C1185   1.396       .  A
C1185      C1458   1.394       .  A
C1185      H1192   1.081       .  S
C1186      C1457   1.392   1_554  A
C1186      S1188   1.772       .  S
S1187      H1190   1.382       .  S
S1188      H1189   1.409       .  S
C1193      C1194   1.419       .  A
C1193      C1198   1.412       .  A
C1194      H1203   1.076       .  S
C1195      C1196   1.428       .  A
C1195      S1199   1.810       .  S
C1196      C1197   1.402       .  A
C1197      H1204   1.075       .  S
C1198      S1200   1.752       .  S
S1199      H1202   1.402       .  S
S1200      H1201   1.395       .  S
C1205      C1206   1.421       .  A
C1205      C1210   1.414       .  A
C1206      C1751   1.421       .  A
C1206      H1215   1.082       .  S
C1207      C1750   1.420   1_545  A
C1207      C1208   1.397       .  A
C1207      S1211   1.731       .  S
C1208      C1209   1.426       .  A
C1209      C1754   1.394   1_545  A
C1209      H1216   1.079       .  S
C1210      C1753   1.395       .  A
C1210      S1212   1.806   1_554  S
S1211      H1214   1.398       .  S
S1212      H1213   1.399   1_556  S
C1217      C1218   1.415       .  A
C1217      C1222   1.443       .  A
C1218      C1491   1.392       .  A
C1218      H1227   1.079       .  S
C1219      C1490   1.391   1_554  A
C1219      C1220   1.432       .  A
C1219      S1223   1.800       .  S
C1220      C1221   1.398       .  A
C1221      C1494   1.418   1_554  A
C1221      H1228   1.066       .  S
C1222      C1493   1.417       .  A
C1222      S1224   1.773       .  S
S1223      H1226   1.391       .  S
S1224      H1225   1.396       .  S
C1229      C1230   1.404       .  A
C1229      C1234   1.436       .  A
C1230      C1231   1.400       .  A
C1230      H1239   1.069       .  S
C1231      C1232   1.432       .  A
C1231      S1235   1.795       .  S
C1232      C1233   1.414       .  A
C1233      C1234   1.422       .  A
C1233      H1240   1.067       .  S
C1234      S1236   1.796       .  S
S1235      H1238   1.355       .  S
S1236      H1237   1.406       .  S
C1241      C1242   1.437       .  A
C1241      C1246   1.423       .  A
C1242      H1251   1.065       .  S
C1243      C1244   1.430       .  A
C1243      S1247   1.799       .  S
C1244      C1245   1.402       .  A
C1245      H1252   1.070       .  S
C1246      S1248   1.776       .  S
S1247      H1250   1.399       .  S
S1248      H1249   1.403       .  S
C1253      C1254   1.411       .  A
C1253      C1258   1.441       .  A
C1254      C1527   1.440       .  A
C1254      H1263   1.069       .  S
C1255      C1526   1.440   1_554  A
C1255      C1256   1.433       .  A
C1255      S1259   1.788       .  S
C1256      C1257   1.399       .  A
C1257      C1530   1.405   1_554  A
C1257      H1264   1.081       .  S
C1258      C1529   1.406       .  A
C1258      S1260   1.806       .  S
S1259      H1262   1.381       .  S
S1260      H1261   1.406       .  S
C1265      C1266   1.409       .  A
C1265      C1270   1.447       .  A
C1266      C1267   1.408       .  A
C1266      H1275   1.076       .  S
C1267      C1268   1.436       .  A
C1267      S1271   1.786       .  S
C1268      C1269   1.415       .  A
C1269      C1270   1.438       .  A
C1269      H1276   1.079       .  S
C1270      S1272   1.788       .  S
S1271      H1274   1.406       .  S
S1272      H1273   1.407       .  S
C1277      C1278   1.416       .  A
C1277      C1282   1.407       .  A
C1278      C1823   1.416   1_545  A
C1278      H1287   1.068       .  S
C1279      C1822   1.421       .  A
C1279      C1280   1.421       .  A
C1279      S1283   1.776       .  S
C1280      C1281   1.410       .  A
C1281      C1826   1.381       .  A
C1281      H1288   1.079       .  S
C1282      C1825   1.389   1_545  A
C1282      S1284   1.775       .  S
S1283      H1286   1.406       .  S
S1284      H1285   1.394       .  S
C1289      C1290   1.405       .  A
C1289      C1294   1.421       .  A
C1290      C1563   1.380       .  A
C1290      H1299   1.071       .  S
C1291      C1562   1.380   1_554  A
C1291      C1292   1.420       .  A
C1291      S1295   1.775       .  S
C1292      C1293   1.428       .  A
C1293      C1566   1.429   1_554  A
C1293      H1300   1.057       .  S
C1294      C1565   1.431       .  A
C1294      S1296   1.788       .  S
S1295      H1298   1.402   1_655  S
S1296      H1297   1.403       .  S
C1301      C1302   1.402       .  A
C1301      C1306   1.427       .  A
C1302      H1311   1.077       .  S
C1303      C1304   1.440       .  A
C1303      S1307   1.768       .  S
C1304      C1305   1.420       .  A
C1305      H1312   1.083       .  S
C1306      S1308   1.783       .  S
S1307      H1310   1.368       .  S
S1308      H1309   1.406       .  S
C1313      C1314   1.411       .  A
C1313      C1318   1.401       .  A
C1314      C1315   1.417       .  A
C1314      H1323   1.079       .  S
C1315      C1316   1.446       .  A
C1315      S1319   1.790       .  S
C1316      C1317   1.407       .  A
C1317      C1318   1.413       .  A
C1317      H1324   1.077       .  S
C1318      S1320   1.727       .  S
S1319      H1322   1.407       .  S
S1320      H1321   1.405       .  S
C1325      C1326   1.395       .  A
C1325      C1330   1.442       .  A
C1326      C1871   1.379   1_545  A
C1326      H1335   1.045       .  S
C1327      C1870   1.396       .  A
C1327      C1328   1.425       .  A
C1327      S1331   1.778       .  S
C1328      C1329   1.409       .  A
C1329      C1874   1.424       .  A
C1329      H1336   1.064       .  S
C1330      C1873   1.434   1_545  A
C1330      S1332   1.806       .  S
S1331      H1334   1.406       .  S
S1332      H1333   1.396       .  S
C1337      C1338   1.396       .  A
C1337      C1342   1.419       .  A
C1338      C1611   1.397   1_554  A
C1338      H1347   1.079       .  S
C1339      C1610   1.397       .  A
C1339      C1340   1.448       .  A
C1339      S1343   1.760       .  S
C1340      C1341   1.429       .  A
C1341      C1614   1.445       .  A
C1341      H1348   1.074       .  S
C1342      C1613   1.444   1_554  A
C1342      S1344   1.785       .  S
S1343      H1346   1.404       .  S
S1344      H1345   1.404       .  S
C1349      C1350   1.400       .  A
C1349      C1354   1.421       .  A
C1350      C1351   1.405       .  A
C1350      H1359   1.065       .  S
C1351      C1352   1.452       .  A
C1351      S1355   1.792       .  S
C1352      C1353   1.399       .  A
C1353      C1354   1.391       .  A
C1353      H1360   1.041       .  S
C1354      S1356   1.806       .  S
S1355      H1358   1.406       .  S
S1356      H1357   1.405       .  S
O1361     Cr1379   2.081       .  S
O1361      C1369   1.282       .  A
O1362     Cr1379   2.007       .  S
O1362      C1363   1.256       .  A
C1363      O1364   1.274       .  A
C1363      C1390   1.582       .  S
O1364     Cr1380   2.054       .  S
O1365     Cr1380   2.004       .  S
O1365      C1366   1.267       .  A
C1366      O1367   1.278       .  A
C1366      C1386   1.605       .  S
O1367     Cr1381   2.078       .  S
O1368     Cr1381   2.051       .  S
O1368      C1369   1.270       .  A
C1369      C1392   1.618       .  S
O1370     Cr1379   1.973       .  S
O1370      C1378   1.250       .  A
O1371     Cr1379   2.083       .  S
O1371      C1372   1.271       .  A
C1372      O1373   1.278       .  A
C1372      C1394   1.627       .  S
O1373     Cr1380   2.089       .  S
O1374     Cr1380   2.051       .  S
O1374      C1375   1.280       .  A
C1375      O1376   1.264       .  A
C1375      C1387   1.599       .  S
O1376     Cr1381   2.014       .  S
O1377     Cr1381   2.072       .  S
O1377      C1378   1.279       .  A
C1378      C1389   1.594       .  S
Cr1379     O1382   1.764       .  S
Cr1380     O1382   1.801       .  S
Cr1381     O1382   1.794       .  S
C1383      C1412   1.578       .  S
C1383      C1597   1.600       .  S
C1383      C1609   1.618       .  S
C1383      C1621   1.573       .  S
C1384      C1397   1.609       .  S
C1384      C1561   1.597       .  S
C1384      C1573   1.609       .  S
C1384      C1588   1.605       .  S
C1385      C1403   1.601       .  S
C1385      C1537   1.622       .  S
C1385      C1549   1.583       .  S
C1385      C1612   1.625       .  S
C1386      C1525   1.619       .  S
C1386      C1552   1.609       .  S
C1386      C1576   1.624       .  S
C1387      C1513   1.614       .  S
C1387      C1528   1.604       .  S
C1387      C1600   1.609       .  S
C1388      C1406   1.577       .  S
C1388      C1504   1.594       .  S
C1388      C1516   1.601       .  S
C1388      C1564   1.605       .  S
C1389      C1477   1.578       .  S
C1389      C1492   1.598       .  S
C1389      C1501   1.608       .  S
C1390      C1456   1.601       .  S
C1390      C1468   1.577       .  S
C1390      C1540   1.616       .  S
C1391      C1400   1.591       .  S
C1391      C1429   1.570       .  S
C1391      C1441   1.619       .  S
C1391      C1465   1.613       .  S
C1392      C1444   1.636       .  S
C1392      C1489   1.612       .  S
C1392      C1585   1.606       .  S
C1393      C1409   1.605       .  S
C1393      C1417   1.631       .  S
C1393      C1432   1.573       .  S
C1393      C1480   1.614       .  S
C1394      C1420   1.625       .  S
C1394      C1453   1.639       .  S
C1394      C1624   1.610       .  S
O1395     Cr1413   1.990       .  S
O1395      C1403   1.258       .  A
O1396     Cr1413   2.055       .  S
O1396      C1397   1.280       .  A
C1397      O1398   1.275       .  A
O1398     Cr1414   2.040       .  S
O1399     Cr1414   2.064       .  S
O1399      C1400   1.276       .  A
C1400      O1401   1.264       .  A
O1401     Cr1415   2.006       .  S
O1402     Cr1415   2.076       .  S
O1402      C1403   1.278       .  A
O1404     Cr1413   2.039       .  S
O1404      C1412   1.273       .  A
O1405     Cr1413   2.010       .  S
O1405      C1406   1.258       .  A
C1406      O1407   1.272       .  A
O1407     Cr1414   2.048       .  S
O1408     Cr1414   2.013       .  S
O1408      C1409   1.264       .  A
C1409      O1410   1.279       .  A
O1410     Cr1415   2.079       .  S
O1411     Cr1415   2.026       .  S
O1411      C1412   1.266       .  A
Cr1413     O1416   1.780       .  S
Cr1414     O1416   1.775       .  S
Cr1415     O1416   1.799       .  S
C1417      C1418   1.425       .  A
C1417      C1422   1.430       .  A
C1418      H1427   1.081       .  S
C1419      C1420   1.459       .  A
C1419      S1423   1.817       .  S
C1420      C1421   1.402       .  A
C1421      H1428   1.077       .  S
C1422      S1424   1.773       .  S
S1423      H1426   1.397       .  S
S1424      H1425   1.405       .  S
C1429      C1430   1.406       .  A
C1429      C1434   1.424       .  A
C1430      H1439   1.083       .  S
C1431      C1432   1.426       .  A
C1431      S1435   1.808       .  S
C1432      C1433   1.418       .  A
C1433      H1440   1.081       .  S
C1434      S1436   1.791       .  S
S1435      H1438   1.375       .  S
S1436      H1437   1.392       .  S
C1441      C1442   1.421       .  A
C1441      C1446   1.436       .  A
C1442      C1987   1.447   1_545  A
C1442      H1451   1.079       .  S
C1443      C1986   1.446       .  A
C1443      C1444   1.459       .  A
C1443      S1447   1.815       .  S
C1444      C1445   1.402       .  A
C1445      C1990   1.407       .  A
C1445      H1452   1.060       .  S
C1446      C1989   1.407   1_545  A
C1446      S1448   1.807       .  S
S1447      H1450   1.407       .  S
S1448      H1449   1.405       .  S
C1453      C1454   1.425       .  A
C1453      C1458   1.445       .  A
C1454      H1463   1.069       .  S
C1455      C1456   1.417       .  A
C1455      S1459   1.768       .  S
C1456      C1457   1.396       .  A
C1457      H1464   1.082       .  S
C1458      S1460   1.776       .  S
S1459      H1462   1.382       .  S
S1460      H1461   1.410       .  S
C1465      C1466   1.421       .  A
C1465      C1470   1.415       .  A
C1466      H1475   1.075       .  S
C1467      C1468   1.430       .  A
C1467      S1471   1.812       .  S
C1468      C1469   1.400       .  A
C1469      H1476   1.075       .  S
C1470      S1472   1.763       .  S
S1471      H1474   1.403       .  S
S1472      H1473   1.382       .  S
C1477      C1478   1.422       .  A
C1477      C1482   1.412       .  A
C1478      C2023   1.422       .  A
C1478      H1487   1.082       .  S
C1479      C2022   1.415   1_545  A
C1479      C1480   1.408       .  A
C1479      S1483   1.738       .  S
C1480      C1481   1.429       .  A
C1481      C2026   1.390   1_545  A
C1481      H1488   1.079       .  S
C1482      C2025   1.394       .  A
C1482      S1484   1.806       .  S
S1483      H1486   1.388       .  S
S1484      H1485   1.400       .  S
C1489      C1490   1.413       .  A
C1489      C1494   1.443       .  A
C1490      H1499   1.079       .  S
C1491      C1492   1.431       .  A
C1491      S1495   1.799       .  S
C1492      C1493   1.397       .  A
C1493      H1500   1.063       .  S
C1494      S1496   1.771       .  S
S1495      H1498   1.391       .  S
S1496      H1497   1.396       .  S
C1501      C1502   1.405       .  A
C1501      C1506   1.435       .  A
C1502      C1503   1.399       .  A
C1502      H1511   1.068       .  S
C1503      C1504   1.432       .  A
C1503      S1507   1.801       .  S
C1504      C1505   1.414       .  A
C1505      C1506   1.420       .  A
C1505      H1512   1.065       .  S
C1506      S1508   1.800       .  S
S1507      H1510   1.357       .  S
S1508      H1509   1.406       .  S
C1513      C1514   1.436       .  A
C1513      C1518   1.423       .  A
C1514      H1523   1.064       .  S
C1515      C1516   1.432       .  A
C1515      S1519   1.796       .  S
C1516      C1517   1.400       .  A
C1517      H1524   1.070       .  S
C1518      S1520   1.776       .  S
S1519      H1522   1.398       .  S
S1520      H1521   1.403       .  S
C1525      C1526   1.412       .  A
C1525      C1530   1.441       .  A
C1526      H1535   1.069       .  S
C1527      C1528   1.434       .  A
C1527      S1531   1.788       .  S
C1528      C1529   1.400       .  A
C1529      H1536   1.081       .  S
C1530      S1532   1.806       .  S
S1531      H1534   1.379       .  S
S1532      H1533   1.406       .  S
C1537      C1538   1.405       .  A
C1537      C1542   1.448       .  A
C1538      C1539   1.404       .  A
C1538      H1547   1.074       .  S
C1539      C1540   1.434       .  A
C1539      S1543   1.785       .  S
C1540      C1541   1.418       .  A
C1541      C1542   1.442       .  A
C1541      H1548   1.079       .  S
C1542      S1544   1.786       .  S
S1543      H1546   1.408       .  S
S1544      H1545   1.407       .  S
C1549      C1550   1.417       .  A
C1549      C1554   1.408       .  A
C1550      C2095   1.418   1_545  A
C1550      H1559   1.068       .  S
C1551      C2094   1.420       .  A
C1551      C1552   1.420       .  A
C1551      S1555   1.780       .  S
C1552      C1553   1.411       .  A
C1553      C2098   1.382       .  A
C1553      H1560   1.080       .  S
C1554      C2097   1.389   1_545  A
C1554      S1556   1.770       .  S
S1555      H1558   1.407       .  S
S1556      H1557   1.394       .  S
C1561      C1562   1.405       .  A
C1561      C1566   1.421       .  A
C1562      H1571   1.069       .  S
C1563      C1564   1.417       .  A
C1563      S1567   1.772       .  S
C1564      C1565   1.427       .  A
C1565      H1572   1.058       .  S
C1566      S1568   1.789       .  S
S1567      H1570   1.401   1_655  S
S1568      H1569   1.401       .  S
C1573      C1574   1.403       .  A
C1573      C1578   1.427       .  A
C1574      H1583   1.076       .  S
C1575      C1576   1.442       .  A
C1575      S1579   1.770       .  S
C1576      C1577   1.420       .  A
C1577      H1584   1.083       .  S
C1578      S1580   1.781       .  S
S1579      H1582   1.366       .  S
S1580      H1581   1.405       .  S
C1585      C1586   1.411       .  A
C1585      C1590   1.400       .  A
C1586      C1587   1.414       .  A
C1586      H1595   1.080       .  S
C1587      C1588   1.444       .  A
C1587      S1591   1.787       .  S
C1588      C1589   1.408       .  A
C1589      C1590   1.412       .  A
C1589      H1596   1.077       .  S
C1590      S1592   1.728       .  S
S1591      H1594   1.408       .  S
S1592      H1593   1.405       .  S
C1597      C1598   1.393       .  A
C1597      C1602   1.443       .  A
C1598      C2143   1.375   1_545  A
C1598      H1607   1.046       .  S
C1599      C2142   1.396       .  A
C1599      C1600   1.426       .  A
C1599      S1603   1.773       .  S
C1600      C1601   1.410       .  A
C1601      C2146   1.426       .  A
C1601      H1608   1.064       .  S
C1602      C2145   1.434   1_545  A
C1602      S1604   1.806       .  S
S1603      H1606   1.408       .  S
S1604      H1605   1.395       .  S
C1609      C1610   1.391       .  A
C1609      C1614   1.421       .  A
C1610      H1619   1.080       .  S
C1611      C1612   1.445       .  A
C1611      S1615   1.767       .  S
C1612      C1613   1.428       .  A
C1613      H1620   1.073       .  S
C1614      S1616   1.787       .  S
S1615      H1618   1.407       .  S
S1616      H1617   1.405       .  S
C1621      C1622   1.400       .  A
C1621      C1626   1.418       .  A
C1622      C1623   1.402       .  A
C1622      H1631   1.068       .  S
C1623      C1624   1.452       .  A
C1623      S1627   1.793       .  S
C1624      C1625   1.399       .  A
C1625      C1626   1.388       .  A
C1625      H1632   1.041       .  S
C1626      S1628   1.806       .  S
S1627      H1630   1.406       .  S
S1628      H1629   1.408       .  S
O1633     Cr1651   2.075       .  S
O1633      C1641   1.280       .  A
O1634     Cr1651   2.005       .  S
O1634      C1635   1.254       .  A
C1635      O1636   1.275       .  A
C1635      C1662   1.581       .  S
O1636     Cr1652   2.055       .  S
O1637     Cr1652   2.006       .  S
O1637      C1638   1.268       .  A
C1638      O1639   1.278       .  A
C1638      C1658   1.606       .  S
O1639     Cr1653   2.081       .  S
O1640     Cr1653   2.052       .  S
O1640      C1641   1.271       .  A
C1641      C1664   1.614       .  S
O1642     Cr1651   1.978       .  S
O1642      C1650   1.253       .  A
O1643     Cr1651   2.081       .  S
O1643      C1644   1.272       .  A
C1644      O1645   1.278       .  A
C1644      C1666   1.624       .  S
O1645     Cr1652   2.085       .  S
O1646     Cr1652   2.049       .  S
O1646      C1647   1.279       .  A
C1647      O1648   1.264       .  A
C1647      C1659   1.596       .  S
O1648     Cr1653   2.017       .  S
O1649     Cr1653   2.073       .  S
O1649      C1650   1.278       .  A
C1650      C1661   1.598       .  S
Cr1651     O1654   1.762       .  S
Cr1652     O1654   1.799       .  S
Cr1653     O1654   1.794       .  S
C1655      C1684   1.573       .  S
C1655      C1869   1.599       .  S
C1655      C1881   1.630       .  S
C1655      C1893   1.577       .  S
C1656      C1669   1.619       .  S
C1656      C1833   1.607       .  S
C1656      C1845   1.613       .  S
C1656      C1860   1.608       .  S
C1657      C1675   1.600       .  S
C1657      C1809   1.614       .  S
C1657      C1821   1.579       .  S
C1657      C1884   1.615       .  S
C1658      C1797   1.614       .  S
C1658      C1824   1.621       .  S
C1658      C1848   1.626       .  S
C1659      C1785   1.607       .  S
C1659      C1800   1.610       .  S
C1659      C1872   1.604       .  S
C1660      C1678   1.580       .  S
C1660      C1776   1.594       .  S
C1660      C1788   1.596       .  S
C1660      C1836   1.607       .  S
C1661      C1749   1.579       .  S
C1661      C1764   1.597       .  S
C1661      C1773   1.601       .  S
C1662      C1728   1.601       .  S
C1662      C1740   1.575       .  S
C1662      C1812   1.612       .  S
C1663      C1672   1.591       .  S
C1663      C1701   1.567       .  S
C1663      C1713   1.620       .  S
C1663      C1737   1.609       .  S
C1664      C1716   1.634       .  S
C1664      C1761   1.613       .  S
C1664      C1857   1.605       .  S
C1665      C1681   1.613       .  S
C1665      C1689   1.633       .  S
C1665      C1704   1.566       .  S
C1665      C1752   1.615       .  S
C1666      C1692   1.631       .  S
C1666      C1725   1.637       .  S
C1666      C1896   1.611       .  S
O1667     Cr1685   1.991       .  S
O1667      C1675   1.258       .  A
O1668     Cr1685   2.064       .  S
O1668      C1669   1.283       .  A
C1669      O1670   1.279       .  A
O1670     Cr1686   2.052       .  S
O1671     Cr1686   2.065       .  S
O1671      C1672   1.277       .  A
C1672      O1673   1.265       .  A
O1673     Cr1687   2.006       .  S
O1674     Cr1687   2.075       .  S
O1674      C1675   1.279       .  A
O1676     Cr1685   2.042       .  S
O1676      C1684   1.271       .  A
O1677     Cr1685   2.007       .  S
O1677      C1678   1.256       .  A
C1678      O1679   1.274       .  A
O1679     Cr1686   2.056       .  S
O1680     Cr1686   2.032       .  S
O1680      C1681   1.269       .  A
C1681      O1682   1.279       .  A
O1682     Cr1687   2.079       .  S
O1683     Cr1687   2.010       .  S
O1683      C1684   1.264       .  A
Cr1685     O1688   1.778       .  S
Cr1686     O1688   1.770       .  S
Cr1687     O1688   1.800       .  S
C1689      C1690   1.428       .  A
C1689      C1694   1.430       .  A
C1690      H1699   1.073       .  S
C1691      C1692   1.463       .  A
C1691      S1695   1.813       .  S
C1692      C1693   1.402       .  A
C1693      H1700   1.077       .  S
C1694      S1696   1.775       .  S
S1695      H1698   1.396       .  S
S1696      H1697   1.403       .  S
C1701      C1702   1.404       .  A
C1701      C1706   1.426       .  A
C1702      C1975   1.356       .  A
C1702      H1711   1.081       .  S
C1703      C1974   1.358   1_554  A
C1703      C1704   1.427       .  A
C1703      S1707   1.807       .  S
C1704      C1705   1.417       .  A
C1705      C1978   1.423   1_554  A
C1705      H1712   1.082       .  S
C1706      C1977   1.425       .  A
C1706      S1708   1.790       .  S
S1707      H1710   1.371       .  S
S1708      H1709   1.391       .  S
C1713      C1714   1.422       .  A
C1713      C1718   1.431       .  A
C1714      H1723   1.079       .  S
C1715      C1716   1.458       .  A
C1715      S1719   1.811       .  S
C1716      C1717   1.403       .  A
C1717      H1724   1.061       .  S
C1718      S1720   1.801       .  S
S1719      H1722   1.408   1_565  S
S1720      H1721   1.406       .  S
C1725      C1726   1.425       .  A
C1725      C1730   1.442       .  A
C1726      C1999   1.448   1_554  A
C1726      H1735   1.071       .  S
C1727      C1998   1.449       .  A
C1727      C1728   1.418       .  A
C1727      S1731   1.770       .  S
C1728      C1729   1.393       .  A
C1729      C2002   1.391       .  A
C1729      H1736   1.079       .  S
C1730      C2001   1.392   1_554  A
C1730      S1732   1.768       .  S
S1731      H1734   1.383       .  S
S1732      H1733   1.410       .  S
C1737      C1738   1.420       .  A
C1737      C1742   1.408       .  A
C1738      H1747   1.075       .  S
C1739      C1740   1.427       .  A
C1739      S1743   1.806       .  S
C1740      C1741   1.403       .  A
C1741      H1748   1.076       .  S
C1742      S1744   1.752       .  S
S1743      H1746   1.404       .  S
S1744      H1745   1.397       .  S
C1749      C1750   1.419       .  A
C1749      C1754   1.415       .  A
C1750      H1759   1.082       .  S
C1751      C1752   1.394       .  A
C1751      S1755   1.729       .  S
C1752      C1753   1.430       .  A
C1753      H1760   1.079       .  S
C1754      S1756   1.804   1_554  S
S1755      H1758   1.394       .  S
S1756      H1757   1.399   1_556  S
C1761      C1762   1.412       .  A
C1761      C1766   1.443       .  A
C1762      C2035   1.390       .  A
C1762      H1771   1.079       .  S
C1763      C2034   1.391   1_554  A
C1763      C1764   1.433       .  A
C1763      S1767   1.801       .  S
C1764      C1765   1.396       .  A
C1765      C2038   1.419   1_554  A
C1765      H1772   1.066       .  S
C1766      C2037   1.418       .  A
C1766      S1768   1.771       .  S
S1767      H1770   1.390       .  S
S1768      H1769   1.396       .  S
C1773      C1774   1.403       .  A
C1773      C1778   1.432       .  A
C1774      C1775   1.399       .  A
C1774      H1783   1.071       .  S
C1775      C1776   1.432       .  A
C1775      S1779   1.794       .  S
C1776      C1777   1.416       .  A
C1777      C1778   1.418       .  A
C1777      H1784   1.066       .  S
C1778      S1780   1.795       .  S
S1779      H1782   1.353       .  S
S1780      H1781   1.407       .  S
C1785      C1786   1.432       .  A
C1785      C1790   1.420       .  A
C1786      H1795   1.067       .  S
C1787      C1788   1.431       .  A
C1787      S1791   1.796       .  S
C1788      C1789   1.399       .  A
C1789      H1796   1.071       .  S
C1790      S1792   1.776       .  S
S1791      H1794   1.398       .  S
S1792      H1793   1.404       .  S
C1797      C1798   1.411       .  A
C1797      C1802   1.441       .  A
C1798      C2071   1.437       .  A
C1798      H1807   1.067       .  S
C1799      C2070   1.439   1_554  A
C1799      C1800   1.433       .  A
C1799      S1803   1.788       .  S
C1800      C1801   1.402       .  A
C1801      C2074   1.405   1_554  A
C1801      H1808   1.081       .  S
C1802      C2073   1.403       .  A
C1802      S1804   1.809       .  S
S1803      H1806   1.385       .  S
S1804      H1805   1.406       .  S
C1809      C1810   1.407       .  A
C1809      C1814   1.443       .  A
C1810      C1811   1.404       .  A
C1810      H1819   1.076       .  S
C1811      C1812   1.433       .  A
C1811      S1815   1.787       .  S
C1812      C1813   1.418       .  A
C1813      C1814   1.437       .  A
C1813      H1820   1.079       .  S
C1814      S1816   1.788       .  S
S1815      H1818   1.407       .  S
S1816      H1817   1.408       .  S
C1821      C1822   1.417       .  A
C1821      C1826   1.416       .  A
C1822      H1831   1.073       .  S
C1823      C1824   1.427       .  A
C1823      S1827   1.789       .  S
C1824      C1825   1.421       .  A
C1825      H1832   1.077       .  S
C1826      S1828   1.774       .  S
S1827      H1830   1.408   1_565  S
S1828      H1829   1.401       .  S
C1833      C1834   1.406       .  A
C1833      C1838   1.428       .  A
C1834      C2107   1.379       .  A
C1834      H1843   1.070       .  S
C1835      C2106   1.380   1_554  A
C1835      C1836   1.418       .  A
C1835      S1839   1.772       .  S
C1836      C1837   1.427       .  A
C1837      C2110   1.433   1_554  A
C1837      H1844   1.057       .  S
C1838      C2109   1.440       .  A
C1838      S1840   1.787       .  S
S1839      H1842   1.400   1_655  S
S1840      H1841   1.401       .  S
C1845      C1846   1.408       .  A
C1845      C1850   1.426       .  A
C1846      H1855   1.076       .  S
C1847      C1848   1.441       .  A
C1847      S1851   1.769       .  S
C1848      C1849   1.423       .  A
C1849      H1856   1.084       .  S
C1850      S1852   1.783       .  S
S1851      H1854   1.370       .  S
S1852      H1853   1.405       .  S
C1857      C1858   1.408       .  A
C1857      C1862   1.398       .  A
C1858      C1859   1.412       .  A
C1858      H1867   1.078       .  S
C1859      C1860   1.446       .  A
C1859      S1863   1.788       .  S
C1860      C1861   1.410       .  A
C1861      C1862   1.414       .  A
C1861      H1868   1.077       .  S
C1862      S1864   1.728       .  S
S1863      H1866   1.408       .  S
S1864      H1865   1.406       .  S
C1869      C1870   1.387       .  A
C1869      C1874   1.441       .  A
C1870      H1879   1.061       .  S
C1871      C1872   1.414       .  A
C1871      S1875   1.786       .  S
C1872      C1873   1.410       .  A
C1873      H1880   1.067       .  S
C1874      S1876   1.811       .  S
S1875      H1878   1.405       .  S
S1876      H1877   1.395       .  S
C1881      C1882   1.403       .  A
C1881      C1886   1.436       .  A
C1882      C2155   1.400   1_554  A
C1882      H1891   1.079       .  S
C1883      C2154   1.401       .  A
C1883      C1884   1.439       .  A
C1883      S1887   1.769       .  S
C1884      C1885   1.413       .  A
C1885      C2158   1.434       .  A
C1885      H1892   1.072       .  S
C1886      C2157   1.438   1_554  A
C1886      S1888   1.766       .  S
S1887      H1890   1.406       .  S
S1888      H1889   1.403       .  S
C1893      C1894   1.401       .  A
C1893      C1898   1.421       .  A
C1894      C1895   1.407       .  A
C1894      H1903   1.067       .  S
C1895      C1896   1.453       .  A
C1895      S1899   1.790       .  S
C1896      C1897   1.395       .  A
C1897      C1898   1.387       .  A
C1897      H1904   1.042       .  S
C1898      S1900   1.801       .  S
S1899      H1902   1.406       .  S
S1900      H1901   1.406       .  S
O1905     Cr1923   2.073       .  S
O1905      C1913   1.280       .  A
O1906     Cr1923   2.005       .  S
O1906      C1907   1.254       .  A
C1907      O1908   1.276       .  A
C1907      C1934   1.582       .  S
O1908     Cr1924   2.057       .  S
O1909     Cr1924   2.009       .  S
O1909      C1910   1.269       .  A
C1910      O1911   1.277       .  A
C1910      C1930   1.609       .  S
O1911     Cr1925   2.080       .  S
O1912     Cr1925   2.043       .  S
O1912      C1913   1.269       .  A
C1913      C1936   1.607       .  S
O1914     Cr1923   1.973       .  S
O1914      C1922   1.250       .  A
O1915     Cr1923   2.073       .  S
O1915      C1916   1.269       .  A
C1916      O1917   1.278       .  A
C1916      C1938   1.619       .  S
O1917     Cr1924   2.084       .  S
O1918     Cr1924   2.052       .  S
O1918      C1919   1.279       .  A
C1919      O1920   1.263       .  A
C1919      C1931   1.592       .  S
O1920     Cr1925   2.011       .  S
O1921     Cr1925   2.073       .  S
O1921      C1922   1.280       .  A
C1922      C1933   1.596       .  S
Cr1923     O1926   1.763       .  S
Cr1924     O1926   1.799       .  S
Cr1925     O1926   1.794       .  S
C1927      C1956   1.575       .  S
C1927      C2141   1.596       .  S
C1927      C2153   1.632       .  S
C1927      C2165   1.579       .  S
C1928      C1941   1.620       .  S
C1928      C2105   1.599       .  S
C1928      C2117   1.611       .  S
C1928      C2132   1.612       .  S
C1929      C1947   1.605       .  S
C1929      C2081   1.616       .  S
C1929      C2093   1.582       .  S
C1929      C2156   1.617       .  S
C1930      C2069   1.619       .  S
C1930      C2096   1.620       .  S
C1930      C2120   1.625       .  S
C1931      C2057   1.602       .  S
C1931      C2072   1.607       .  S
C1931      C2144   1.603       .  S
C1932      C1950   1.577       .  S
C1932      C2048   1.596       .  S
C1932      C2060   1.600       .  S
C1932      C2108   1.597       .  S
C1933      C2021   1.572       .  S
C1933      C2036   1.598       .  S
C1933      C2045   1.604       .  S
C1934      C2000   1.603       .  S
C1934      C2012   1.574       .  S
C1934      C2084   1.615       .  S
C1935      C1944   1.591       .  S
C1935      C1973   1.567       .  S
C1935      C1985   1.621       .  S
C1935      C2009   1.609       .  S
C1936      C1988   1.634       .  S
C1936      C2033   1.615       .  S
C1936      C2129   1.607       .  S
C1937      C1953   1.610       .  S
C1937      C1961   1.635       .  S
C1937      C1976   1.562       .  S
C1937      C2024   1.616       .  S
C1938      C1964   1.630       .  S
C1938      C1997   1.638       .  S
C1938      C2168   1.613       .  S
O1939     Cr1957   2.001       .  S
O1939      C1947   1.261       .  A
O1940     Cr1957   2.062       .  S
O1940      C1941   1.284       .  A
C1941      O1942   1.279       .  A
O1942     Cr1958   2.051       .  S
O1943     Cr1958   2.067       .  S
O1943      C1944   1.278       .  A
C1944      O1945   1.265       .  A
O1945     Cr1959   2.005       .  S
O1946     Cr1959   2.077       .  S
O1946      C1947   1.279       .  A
O1948     Cr1957   2.049       .  S
O1948      C1956   1.274       .  A
O1949     Cr1957   2.001       .  S
O1949      C1950   1.253       .  A
C1950      O1951   1.275       .  A
O1951     Cr1958   2.057       .  S
O1952     Cr1958   2.031       .  S
O1952      C1953   1.269       .  A
C1953      O1954   1.279       .  A
O1954     Cr1959   2.077       .  S
O1955     Cr1959   2.011       .  S
O1955      C1956   1.266       .  A
Cr1957     O1960   1.778       .  S
Cr1958     O1960   1.769       .  S
Cr1959     O1960   1.797       .  S
C1961      C1962   1.428       .  A
C1961      C1966   1.430       .  A
C1962      H1971   1.072       .  S
C1963      C1964   1.462       .  A
C1963      S1967   1.812       .  S
C1964      C1965   1.402       .  A
C1965      H1972   1.076       .  S
C1966      S1968   1.777       .  S
S1967      H1970   1.397       .  S
S1968      H1969   1.404       .  S
C1973      C1974   1.404       .  A
C1973      C1978   1.424       .  A
C1974      H1983   1.081       .  S
C1975      C1976   1.426       .  A
C1975      S1979   1.807       .  S
C1976      C1977   1.418       .  A
C1977      H1984   1.083       .  S
C1978      S1980   1.789       .  S
S1979      H1982   1.372       .  S
S1980      H1981   1.390       .  S
C1985      C1986   1.422       .  A
C1985      C1990   1.432       .  A
C1986      H1995   1.080       .  S
C1987      C1988   1.456       .  A
C1987      S1991   1.809       .  S
C1988      C1989   1.398       .  A
C1989      H1996   1.057       .  S
C1990      S1992   1.803       .  S
S1991      H1994   1.406   1_565  S
S1992      H1993   1.406       .  S
C1997      C1998   1.427       .  A
C1997      C2002   1.440       .  A
C1998      H2007   1.071       .  S
C1999      C2000   1.419       .  A
C1999      S2003   1.766       .  S
C2000      C2001   1.393       .  A
C2001      H2008   1.082       .  S
C2002      S2004   1.769       .  S
S2003      H2006   1.382       .  S
S2004      H2005   1.409       .  S
C2009      C2010   1.419       .  A
C2009      C2014   1.410       .  A
C2010      H2019   1.077       .  S
C2011      C2012   1.427       .  A
C2011      S2015   1.810       .  S
C2012      C2013   1.404       .  A
C2013      H2020   1.075       .  S
C2014      S2016   1.751       .  S
S2015      H2018   1.403       .  S
S2016      H2017   1.396       .  S
C2021      C2022   1.418       .  A
C2021      C2026   1.409       .  A
C2022      H2031   1.083       .  S
C2023      C2024   1.395       .  A
C2023      S2027   1.729       .  S
C2024      C2025   1.430       .  A
C2025      H2032   1.079       .  S
C2026      S2028   1.805       .  S
S2027      H2030   1.395       .  S
S2028      H2029   1.401       .  S
C2033      C2034   1.413       .  A
C2033      C2038   1.446       .  A
C2034      H2043   1.079       .  S
C2035      C2036   1.432       .  A
C2035      S2039   1.795       .  S
C2036      C2037   1.399       .  A
C2037      H2044   1.067       .  S
C2038      S2040   1.772       .  S
S2039      H2042   1.390       .  S
S2040      H2041   1.396       .  S
C2045      C2046   1.405       .  A
C2045      C2050   1.437       .  A
C2046      C2047   1.401       .  A
C2046      H2055   1.066       .  S
C2047      C2048   1.427       .  A
C2047      S2051   1.795       .  S
C2048      C2049   1.413       .  A
C2049      C2050   1.418       .  A
C2049      H2056   1.067       .  S
C2050      S2052   1.803       .  S
S2051      H2054   1.400       .  S
S2052      H2053   1.407       .  S
C2057      C2058   1.431       .  A
C2057      C2062   1.422       .  A
C2058      H2067   1.064       .  S
C2059      C2060   1.432       .  A
C2059      S2063   1.795       .  S
C2060      C2061   1.400       .  A
C2061      H2068   1.071       .  S
C2062      S2064   1.776       .  S
S2063      H2066   1.400       .  S
S2064      H2065   1.400       .  S
C2069      C2070   1.412       .  A
C2069      C2074   1.442       .  A
C2070      H2079   1.069       .  S
C2071      C2072   1.431       .  A
C2071      S2075   1.788       .  S
C2072      C2073   1.402       .  A
C2073      H2080   1.081       .  S
C2074      S2076   1.810       .  S
S2075      H2078   1.383       .  S
S2076      H2077   1.406       .  S
C2081      C2082   1.406       .  A
C2081      C2086   1.444       .  A
C2082      C2083   1.404       .  A
C2082      H2091   1.074       .  S
C2083      C2084   1.434       .  A
C2083      S2087   1.789       .  S
C2084      C2085   1.420       .  A
C2085      C2086   1.440       .  A
C2085      H2092   1.078       .  S
C2086      S2088   1.789       .  S
S2087      H2090   1.406       .  S
S2088      H2089   1.407       .  S
C2093      C2094   1.418       .  A
C2093      C2098   1.420       .  A
C2094      H2103   1.072       .  S
C2095      C2096   1.427       .  A
C2095      S2099   1.791       .  S
C2096      C2097   1.418       .  A
C2097      H2104   1.078       .  S
C2098      S2100   1.776       .  S
S2099      H2102   1.407   1_565  S
S2100      H2101   1.400       .  S
C2105      C2106   1.404       .  A
C2105      C2110   1.422       .  A
C2106      H2115   1.071       .  S
C2107      C2108   1.412       .  A
C2107      S2111   1.772       .  S
C2108      C2109   1.424       .  A
C2109      H2116   1.070       .  S
C2110      S2112   1.787       .  S
S2111      H2114   1.399   1_655  S
S2112      H2113   1.401       .  S
C2117      C2118   1.405       .  A
C2117      C2122   1.427       .  A
C2118      H2127   1.075       .  S
C2119      C2120   1.440       .  A
C2119      S2123   1.767       .  S
C2120      C2121   1.420       .  A
C2121      H2128   1.083       .  S
C2122      S2124   1.784       .  S
S2123      H2126   1.371       .  S
S2124      H2125   1.406       .  S
C2129      C2130   1.409       .  A
C2129      C2134   1.400       .  A
C2130      C2131   1.419       .  A
C2130      H2139   1.080       .  S
C2131      C2132   1.450       .  A
C2131      S2135   1.788       .  S
C2132      C2133   1.405       .  A
C2133      C2134   1.411       .  A
C2133      H2140   1.076       .  S
C2134      S2136   1.723       .  S
S2135      H2138   1.407       .  S
S2136      H2137   1.404       .  S
C2141      C2142   1.383       .  A
C2141      C2146   1.441       .  A
C2142      H2151   1.064       .  S
C2143      C2144   1.414       .  A
C2143      S2147   1.785       .  S
C2144      C2145   1.411       .  A
C2145      H2152   1.068       .  S
C2146      S2148   1.812       .  S
S2147      H2150   1.405       .  S
S2148      H2149   1.395       .  S
C2153      C2154   1.404       .  A
C2153      C2158   1.441       .  A
C2154      H2163   1.077       .  S
C2155      C2156   1.441       .  A
C2155      S2159   1.768       .  S
C2156      C2157   1.416       .  A
C2157      H2164   1.073       .  S
C2158      S2160   1.770       .  S
S2159      H2162   1.407   1_556  S
S2160      H2161   1.405       .  S
C2165      C2166   1.399       .  A
C2165      C2170   1.421       .  A
C2166      C2167   1.408       .  A
C2166      H2175   1.068       .  S
C2167      C2168   1.454       .  A
C2167      S2171   1.790       .  S
C2168      C2169   1.397       .  A
C2169      C2170   1.387       .  A
C2169      H2176   1.046       .  S
C2170      S2172   1.795       .  S
S2171      H2174   1.406       .  S
S2172      H2173   1.398       .  S
