geometry optimzed in LAMMPS
_audit_creation_date              2020-11-30 
_audit_creation_method            'lammps2cif' 
_symmetry_space_group_name_H-M    'P1' 
_symmetry_Int_Tables_number       1 
_symmetry_cell_setting            triclinic 
loop_ 
_symmetry_equiv_pos_as_xyz 
  x,y,z 
_cell_length_a                    38.21663721 
_cell_length_b                    38.39420285322202 
_cell_length_c                    67.39428644782122 
_cell_angle_alpha                 91.0988879728567 
_cell_angle_beta                  88.94882181106544 
_cell_angle_gamma                 120.47690287352022 
loop_ 
_atom_site_label 
_atom_site_type_symbol 
_atom_site_fract_x 
_atom_site_fract_y 
_atom_site_fract_z 
_atom_site_charge 
N1          N  0.48468211  0.38840655  0.09945831    -0.25900
N2          N  0.51137327  0.40423673  0.11390337    -0.33700
C3          C  0.49969109  0.37749061  0.12870375     0.02500
C4          C  0.46413163  0.34310771  0.12317052     0.08500
C5          C  0.45535815  0.35114609  0.10455706    -0.04600
H6          H  0.51668789  0.38209817  0.14212260     0.09200
H7          H  0.43035865  0.33122495  0.09507439     0.10400
Cu8        Cu  0.56408319  0.45961305  0.11162504     0.44200
Cu9        Cu  0.49135743  0.41637969  0.07276213     0.42000
Cu10       Cu  0.58604795  0.50994346  0.06394075     0.43900
N11         N  0.61628197  0.51356952  0.10530800    -0.33200
N12         N  0.62468646  0.53217659  0.08807588    -0.27500
C13         C  0.66157043  0.56583053  0.08907362    -0.03600
C14         C  0.67709486  0.56825047  0.10776436     0.08600
C15         C  0.64742792  0.53463116  0.11766115     0.02400
H16         H  0.67631731  0.58658706  0.07696374     0.10100
H17         H  0.64821952  0.52561051  0.13267199     0.09100
N18         N  0.54121791  0.48032199  0.04278941    -0.34700
N19         N  0.50649066  0.44664445  0.04625392    -0.26900
C20         C  0.48418861  0.43499663  0.02968886    -0.02100
C21         C  0.50592265  0.46242856  0.01501762     0.06500
C22         C  0.54199297  0.49092559  0.02381622     0.04600
H23         H  0.45455520  0.40806195  0.02834363     0.09700
H24         H  0.56701962  0.51734177  0.01704717     0.08500
N25         N  0.38186483  0.43398988  0.88848291    -0.25900
N26         N  0.39043015  0.45400865  0.87162182    -0.33700
C27         C  0.35780942  0.43522222  0.85975096     0.02500
C28         C  0.32738346  0.40184526  0.86963829     0.08500
C29         C  0.34379687  0.40217738  0.88776314    -0.04600
H30         H  0.35659555  0.44518091  0.84502124     0.09200
H31         H  0.32918216  0.38062705  0.89958387     0.10400
Cu32       Cu  0.44634465  0.50572253  0.86511309     0.44200
Cu33       Cu  0.42163123  0.44904551  0.91192364     0.42000
Cu34       Cu  0.52281780  0.52658974  0.90133581     0.43900
N35         N  0.50573485  0.55508468  0.86337950    -0.33200
N36         N  0.53336660  0.56137075  0.87669849    -0.27500
C37         C  0.56759061  0.59632402  0.87295310    -0.03600
C38         C  0.56171002  0.61324902  0.85645459     0.08600
C39         C  0.52208116  0.58627958  0.85061826     0.02400
H40         H  0.59427105  0.60944678  0.88219723     0.10100
H41         H  0.50575326  0.58994252  0.83867325     0.09100
N42         N  0.50560504  0.49782064  0.92815578    -0.34700
N43         N  0.46796171  0.46957560  0.93241393    -0.26900
C44         C  0.46589852  0.45935736  0.95156187    -0.02100
C45         C  0.50426989  0.48262062  0.95963902     0.06500
C46         C  0.52856293  0.50652995  0.94437373     0.04600
H47         H  0.43831873  0.43755018  0.95905556     0.09700
H48         H  0.56036624  0.52956750  0.94515147     0.08500
O49         O  0.58372072  0.53421722  0.49679895    -0.71500
O50         O  0.46977887  0.49452465  0.47998635    -0.72500
O51         O  0.50808070  0.46136681  0.50185129    -0.61100
O52         O  0.54522132  0.56695436  0.47478604    -0.69500
O53         O  0.55640981  0.54222641  0.44690852    -0.69100
O54         O  0.52032505  0.43725570  0.47403482    -0.60300
O55         O  0.48067035  0.46911407  0.45225559    -0.72800
O56         O  0.59580657  0.51006387  0.46897140    -0.71600
Cu57       Cu  0.52635000  0.51516470  0.48931595     1.04600
Cu58       Cu  0.53871440  0.48881880  0.45955215     1.04300
C59         C  0.60784903  0.52870274  0.48558484     0.94700
C60         C  0.45701126  0.47505109  0.46365626     0.93800
C61         C  0.50801613  0.43249185  0.49204764     0.86000
C62         C  0.55683041  0.57129348  0.45662732     0.92200
O63         O  0.11784399  0.80520390  0.82606835    -0.71500
O64         O  0.23168978  0.84209250  0.84338877    -0.72500
O65         O  0.19259344  0.87977739  0.82518594    -0.61100
O66         O  0.15708307  0.76817325  0.84421733    -0.69500
O67         O  0.17197834  0.75205382  0.81471269    -0.69100
O68         O  0.20675990  0.86329762  0.79561060    -0.60300
O69         O  0.24606097  0.82611731  0.81372516    -0.72800
O70         O  0.13264710  0.78861293  0.79667895    -0.71600
Cu71       Cu  0.17437308  0.82448330  0.83576399     1.04600
Cu72       Cu  0.18987380  0.80707893  0.80414201     1.04300
C73         C  0.10726377  0.79061384  0.80857157     0.94700
C74         C  0.25647279  0.83908301  0.83144712     0.93800
C75         C  0.20484035  0.88896463  0.80726670     0.86000
C76         C  0.15917904  0.74264727  0.83253296     0.92200
N77         N  0.62913107  0.07610288  0.08436095    -0.25900
N78         N  0.62054506  0.09233404  0.09980858    -0.33700
C79         C  0.65220293  0.10858922  0.11220127     0.02500
C80         C  0.68231868  0.10245399  0.10416226     0.08500
C81         C  0.66653607  0.08157211  0.08657768    -0.04600
H82         H  0.65311322  0.12414597  0.12588352     0.09200
H83         H  0.68149396  0.07185874  0.07594088     0.10400
Cu84       Cu  0.56748950  0.09418267  0.10349642     0.44200
Cu85       Cu  0.59076042  0.04911128  0.06047142     0.42000
Cu86       Cu  0.49646583  0.04870301  0.06398509     0.43900
N87         N  0.51294459  0.09357803  0.10283952    -0.33200
N88         N  0.48701840  0.07649420  0.08814842    -0.27500
C89         C  0.45500995  0.08131474  0.09136093    -0.03600
C90         C  0.46089657  0.10248901  0.10891343     0.08600
C91         C  0.49800272  0.10986586  0.11590321     0.02400
H92         H  0.42941986  0.07048435  0.08148634     0.10100
H93         H  0.51320425  0.12602659  0.12929527     0.09100
N94         N  0.51231683  0.02538374  0.04008302    -0.34700
N95         N  0.54694529  0.02561157  0.03861701    -0.26900
C96         C  0.54849853  0.00955240  0.02095666    -0.02100
C97         C  0.51301240  0.99880515  0.01090230     0.06500
C98         C  0.49086261  0.00923582  0.02347542     0.04600
H99         H  0.57382159  0.00658572  0.01584427     0.09700
H100        H  0.46150817  0.00592245  0.02064984     0.08500
N101        N  0.40002334  0.88665044  0.88433393    -0.25900
N102        N  0.40665931  0.87005999  0.86839258    -0.33700
C103        C  0.37564020  0.85858072  0.85576935     0.02500
C104        C  0.34842250  0.86846668  0.86431006     0.08500
C105        C  0.36480182  0.88594784  0.88237093    -0.04600
H106        H  0.37293871  0.84365799  0.84164692     0.09200
H107        H  0.35201512  0.89737937  0.89337348     0.10400
Cu108      Cu  0.45716951  0.86304256  0.86468937     0.44200
Cu109      Cu  0.43779357  0.90995103  0.90844497     0.42000
Cu110      Cu  0.52673692  0.90341567  0.90607478     0.43900
N111        N  0.51052746  0.86075805  0.86627402    -0.33200
N112        N  0.53531551  0.87568591  0.88155351    -0.27500
C113        C  0.56637634  0.86919473  0.87878126    -0.03600
C114        C  0.56131833  0.84932177  0.86089605     0.08600
C115        C  0.52552841  0.84435844  0.85324526     0.02400
H116        H  0.59081958  0.87808670  0.88917755     0.10100
H117        H  0.51116415  0.82954332  0.83946873     0.09100
N118        N  0.51257766  0.92798081  0.93011345    -0.34700
N119        N  0.47934702  0.93036757  0.93107223    -0.26900
C120        C  0.47784541  0.94662800  0.94866627    -0.02100
C121        C  0.51198248  0.95476939  0.95926347     0.06500
C122        C  0.53329218  0.94264963  0.94703897     0.04600
H123        H  0.45355071  0.95171162  0.95331163     0.09700
H124        H  0.56156286  0.94393293  0.95029657     0.08500
N125        N  0.93369225  0.39857757  0.09235983    -0.25900
N126        N  0.92345813  0.41278774  0.10800181    -0.33700
C127        C  0.91045336  0.38576044  0.12261844     0.02500
C128        C  0.91250096  0.35270863  0.11598885     0.08500
C129        C  0.92743476  0.36166216  0.09666189    -0.04600
H130        H  0.89941331  0.38956779  0.13691131     0.09200
H131        H  0.93252768  0.34265619  0.08638802     0.10400
Cu132      Cu  0.92524881  0.46703398  0.10876574     0.44200
Cu133      Cu  0.95332713  0.43116816  0.06622482     0.42000
Cu134      Cu  0.95163331  0.52853186  0.06635725     0.43900
N135        N  0.92375217  0.51962004  0.10870199    -0.33200
N136        N  0.93270162  0.54297239  0.09307136    -0.27500
C137        C  0.92585548  0.57338287  0.09781701    -0.03600
C138        C  0.91196535  0.56841709  0.11740445     0.08600
C139        C  0.91123985  0.53416647  0.12371173     0.02400
H140        H  0.92974125  0.59659729  0.08766234     0.10100
H141        H  0.90099995  0.51995668  0.13802291     0.09100
N142        N  0.96912649  0.50474918  0.04244160    -0.34700
N143        N  0.96970305  0.47050237  0.04251076    -0.26900
C144        C  0.98297988  0.46516939  0.02472372    -0.02100
C145        C  0.99123782  0.49749925  0.01283682     0.06500
C146        C  0.98211325  0.52191318  0.02453542     0.04600
H147        H  0.98665935  0.43970142  0.02091738     0.09700
H148        H  0.98504152  0.55033845  0.02037518     0.08500
N149        N  0.10462876  0.59986361  0.88631944    -0.25900
N150        N  0.11540956  0.58972862  0.86943049    -0.33700
C151        C  0.12721280  0.61999786  0.85647910     0.02500
C152        C  0.12361592  0.65057743  0.86578164     0.08500
C153        C  0.10926117  0.63676031  0.88463637    -0.04600
H154        H  0.13790109  0.61969931  0.84154606     0.09200
H155        H  0.10280797  0.65244292  0.89633313     0.10400
Cu156      Cu  0.11393406  0.53541232  0.86510999     0.44200
Cu157      Cu  0.08382324  0.56325701  0.91082638     0.42000
Cu158      Cu  0.07382604  0.46488279  0.90646644     0.43900
N159        N  0.10969230  0.47939353  0.86480731    -0.33200
N160        N  0.09499484  0.45371386  0.87969935    -0.27500
C161        C  0.09723696  0.42075491  0.87478944    -0.03600
C162        C  0.11421616  0.42597941  0.85589986     0.08600
C163        C  0.12168444  0.46348542  0.85008805     0.02400
H164        H  0.08772875  0.39529317  0.88446838     0.10100
H165        H  0.13540323  0.47842945  0.83625393     0.09100
N166        N  0.05641824  0.48491661  0.93172982    -0.34700
N167        N  0.06048918  0.52116967  0.93311238    -0.26900
C168        C  0.04662475  0.52548345  0.95089755    -0.02100
C169        C  0.03303754  0.49015773  0.96135823     0.06500
C170        C  0.03981207  0.46513400  0.94877045     0.04600
H171        H  0.04664341  0.55250920  0.95572462     0.09700
H172        H  0.03306898  0.43476717  0.95177037     0.08500
O173        O  0.88203223  0.21497979  0.12555086    -0.71500
O174        O  0.83029209  0.11313927  0.15696646    -0.72500
O175        O  0.80260433  0.14582890  0.12824261    -0.61100
O176        O  0.90948312  0.18166374  0.15488075    -0.69500
O177        O  0.89272591  0.21142984  0.17871234    -0.69100
O178        O  0.78688612  0.17571232  0.15245653    -0.60300
O179        O  0.81410286  0.14262051  0.18117855    -0.72800
O180        O  0.86558179  0.24452094  0.14960753    -0.71600
Cu181      Cu  0.85679873  0.16294387  0.14054503     1.04600
Cu182      Cu  0.83938032  0.19474320  0.16627987     1.04300
C183        C  0.88155486  0.24582445  0.13258625     0.94700
C184        C  0.81376683  0.11156534  0.17383903     0.93800
C185        C  0.77765528  0.15471596  0.13647596     0.86000
C186        C  0.91741766  0.20152904  0.17126321     0.92200
N187        N  0.29655295  0.85549623  0.42165389    -0.25900
N188        N  0.28734103  0.82698060  0.43486399    -0.33700
C189        C  0.31636086  0.84085834  0.44864324     0.02500
C190        C  0.34539515  0.87995564  0.44404261     0.08500
C191        C  0.33205142  0.88847986  0.42677819    -0.04600
H192        H  0.31608105  0.82374903  0.46127779     0.09200
H193        H  0.34661195  0.91653500  0.41868205     0.10400
Cu194      Cu  0.23553670  0.77060200  0.43490090     0.44200
Cu195      Cu  0.25905671  0.84788996  0.39788505     0.42000
Cu196      Cu  0.16157051  0.75219792  0.39929602     0.43900
N197        N  0.18071524  0.71702851  0.43368039    -0.33200
N198        N  0.15297416  0.71027213  0.42039030    -0.27500
C199        C  0.12057153  0.67327508  0.42316303    -0.03600
C200        C  0.12825114  0.65598695  0.43904301     0.08600
C201        C  0.16676083  0.68458448  0.44539447     0.02400
H202        H  0.09332786  0.66000227  0.41431997     0.10100
H203        H  0.18348813  0.68223867  0.45755901     0.09100
N204        N  0.17785168  0.79602562  0.37810252    -0.34700
N205        N  0.21317927  0.83017707  0.37707459    -0.26900
C206        C  0.21393999  0.84981363  0.36056815    -0.02100
C207        C  0.17726364  0.82676006  0.35089548     0.06500
C208        C  0.15524751  0.79313522  0.36247653     0.04600
H209        H  0.23950494  0.87833809  0.35589750     0.09700
H210        H  0.12535392  0.76767804  0.35944394     0.08500
N211        N  0.05524566  0.81675513  0.22707754    -0.25900
N212        N  0.06693644  0.83459768  0.20967151    -0.33700
C213        C  0.03643629  0.81589250  0.19675025     0.02500
C214        C  0.00372533  0.78451464  0.20641869     0.08500
C215        C  0.01669744  0.78587558  0.22562713    -0.04600
H216        H  0.03850987  0.82436250  0.18138162     0.09200
H217        H  0.99952448  0.76567459  0.23760198     0.10400
Cu218      Cu  0.12365343  0.88298378  0.20357030     0.44200
Cu219      Cu  0.09340090  0.83501124  0.25147680     0.42000
Cu220      Cu  0.19633116  0.91870431  0.24262085     0.43900
N221        N  0.18087672  0.93282552  0.20093276    -0.33200
N222        N  0.20766747  0.94613467  0.21536825    -0.27500
C223        C  0.24084726  0.98052575  0.20967075    -0.03600
C224        C  0.23444265  0.98917189  0.19068053     0.08600
C225        C  0.19621316  0.95827687  0.18559715     0.02400
H226        H  0.26691398  0.99832000  0.21897788     0.10100
H227        H  0.18007717  0.95532900  0.17206451     0.09100
N228        N  0.17677301  0.88804133  0.26904939    -0.34700
N229        N  0.13942152  0.85794883  0.27239981    -0.26900
C230        C  0.13717591  0.84455980  0.29093264    -0.02100
C231        C  0.17499691  0.86739028  0.29961231     0.06500
C232        C  0.19922754  0.89463157  0.28531548     0.04600
H233        H  0.11008905  0.81970973  0.29737631     0.09700
H234        H  0.23107880  0.91724811  0.28652366     0.08500
N235        N  0.29467063  0.38393260  0.42280988    -0.25900
N236        N  0.29064976  0.40561805  0.43712375    -0.33700
C237        C  0.32579033  0.42609709  0.44697670     0.02500
C238        C  0.35336231  0.41688296  0.43831949     0.08500
C239        C  0.33253528  0.39000896  0.42307998    -0.04600
H240        H  0.33093514  0.44689929  0.45912099     0.09200
H241        H  0.34435610  0.37671563  0.41261132     0.10400
Cu242      Cu  0.23842605  0.40843692  0.44125098     0.44200
Cu243      Cu  0.24924761  0.35053267  0.40273994     0.42000
Cu244      Cu  0.15836271  0.35933280  0.40435681     0.43900
N245        N  0.18505997  0.40983997  0.44195804    -0.33200
N246        N  0.15598615  0.39248240  0.42861402    -0.27500
C247        C  0.12631987  0.40036515  0.43345118    -0.03600
C248        C  0.13743486  0.42373807  0.45067811     0.08600
C249        C  0.17468508  0.42900666  0.45561380     0.02400
H250        H  0.09885825  0.38980599  0.42502616     0.10100
H251        H  0.19319793  0.44595121  0.46814500     0.09100
N252        N  0.17156157  0.32985152  0.38180166    -0.34700
N253        N  0.20414314  0.32615465  0.38174981    -0.26900
C254        C  0.20549096  0.30786443  0.36485260    -0.02100
C255        C  0.17248938  0.29985492  0.35356406     0.06500
C256        C  0.15136053  0.31404252  0.36473878     0.04600
H257        H  0.22989824  0.30263056  0.36065893     0.09700
H258        H  0.12430082  0.31426604  0.36056745     0.08500
N259        N  0.05569823  0.22118009  0.21503448    -0.25900
N260        N  0.07036374  0.20945565  0.20008143    -0.33700
C261        C  0.04606933  0.20065146  0.18430175     0.02500
C262        C  0.01488324  0.20747664  0.18950304     0.08500
C263        C  0.02189743  0.22036525  0.20913544    -0.04600
H264        H  0.05080726  0.19010067  0.17007326     0.09200
H265        H  0.00360527  0.22800627  0.21863333     0.10400
Cu266      Cu  0.12316607  0.20673846  0.20142719     0.44200
Cu267      Cu  0.08114851  0.23729796  0.24302974     0.42000
Cu268      Cu  0.17496042  0.23722313  0.24791446     0.43900
N269        N  0.17829229  0.21008089  0.20625835    -0.33200
N270        N  0.19747166  0.22171556  0.22336142    -0.27500
C271        C  0.23231686  0.22116556  0.22186441    -0.03600
C272        C  0.23525948  0.20852302  0.20290176     0.08600
C273        C  0.20041729  0.20173900  0.19337316     0.02400
H274        H  0.25376864  0.22911142  0.23374985     0.10100
H275        H  0.19157586  0.19150043  0.17826056     0.09100
N276        N  0.14728089  0.25084449  0.27090571    -0.34700
N277        N  0.11307597  0.25122730  0.26932199    -0.26900
C278        C  0.10396817  0.26174222  0.28701035    -0.02100
C279        C  0.13381169  0.26803297  0.30032973     0.06500
C280        C  0.16082348  0.26091290  0.28954563     0.04600
H281        H  0.07765427  0.26470167  0.28993935     0.09700
H282        H  0.18861354  0.26328579  0.29461924     0.08500
O283        O  0.37687184  0.13530961  0.13234531    -0.71500
O284        O  0.29459628  0.16224438  0.15277280    -0.72500
O285        O  0.36440953  0.20134179  0.12825901    -0.61100
O286        O  0.30706679  0.09649191  0.15694318    -0.69500
O287        O  0.34565422  0.12552811  0.18333152    -0.69100
O288        O  0.40213341  0.23090906  0.15483937    -0.60300
O289        O  0.33187832  0.19095359  0.17956540    -0.72800
O290        O  0.41563277  0.16505003  0.15857318    -0.71600
Cu291      Cu  0.33450708  0.14784885  0.14165389     1.04600
Cu292      Cu  0.37524403  0.17921288  0.17000954     1.04300
C293        C  0.40912212  0.14574211  0.14212548     0.94700
C294        C  0.29989899  0.18036792  0.16946877     0.93800
C295        C  0.39214357  0.23272043  0.13706187     0.86000
C296        C  0.31697398  0.09455114  0.17471543     0.92200
O297        O  0.01721763  0.52150244  0.51373958    -0.71500
O298        O  0.07280664  0.47094220  0.48395491    -0.72500
O299        O  0.08568686  0.55039233  0.48788025    -0.61100
O300        O  0.00422315  0.44175559  0.50982292    -0.69500
O301        O  0.96464009  0.43032400  0.48389276    -0.69100
O302        O  0.04584546  0.53819177  0.46198035    -0.60300
O303        O  0.03277295  0.45883564  0.45814386    -0.72800
O304        O  0.97795988  0.50967523  0.48764631    -0.71600
Cu305      Cu  0.04639014  0.49651166  0.49978338     1.04600
Cu306      Cu  0.00394333  0.48385661  0.47204316     1.04300
C307        C  0.98886500  0.52375792  0.50521732     0.94700
C308        C  0.06162923  0.45704789  0.46635682     0.93800
C309        C  0.07840294  0.56141921  0.47145387     0.86000
C310        C  0.97161676  0.41891993  0.50026325     0.92200
N311        N  0.75822568  0.60540465  0.53608317    -0.25900
N312        N  0.76721779  0.58946942  0.52069921    -0.33700
C313        C  0.73586523  0.57345507  0.50804739     0.02500
C314        C  0.70573625  0.57970246  0.51598619     0.08500
C315        C  0.72103227  0.60009678  0.53369527    -0.04600
H316        H  0.73471430  0.55732209  0.49451159     0.09200
H317        H  0.70563074  0.60909738  0.54443890     0.10400
Cu318      Cu  0.82006693  0.58707617  0.51908201     0.44200
Cu319      Cu  0.79498630  0.62955463  0.56051697     0.42000
Cu320      Cu  0.88363973  0.61831291  0.56312439     0.43900
N321        N  0.87091449  0.58172511  0.52209299    -0.33200
N322        N  0.89375919  0.59224708  0.53810197    -0.27500
C323        C  0.92236675  0.58193262  0.53540871    -0.03600
C324        C  0.91706189  0.56410566  0.51678562     0.08600
C325        C  0.88438996  0.56466179  0.50880473     0.02400
H326        H  0.94473675  0.58649627  0.54634004     0.10100
H327        H  0.87063653  0.55249185  0.49454347     0.09100
N328        N  0.86444423  0.64181365  0.58595418    -0.34700
N329        N  0.83238434  0.64617920  0.58480820    -0.26900
C330        C  0.82681443  0.66019172  0.60226144    -0.02100
C331        C  0.85663604  0.66475972  0.61505439     0.06500
C332        C  0.88014225  0.65293254  0.60424148     0.04600
H333        H  0.80195548  0.66530716  0.60560487     0.09700
H334        H  0.90593383  0.65132040  0.60932676     0.08500
N335        N  0.96276737  0.72095910  0.75454448    -0.25900
N336        N  0.95083504  0.73354057  0.77026912    -0.33700
C337        C  0.98025576  0.74736292  0.78402702     0.02500
C338        C  0.01192244  0.74315532  0.77640326     0.08500
C339        C  0.99962498  0.72622709  0.75781850    -0.04600
H340        H  0.97918950  0.76074709  0.79810930     0.09200
H341        H  0.01706946  0.71993780  0.74701164     0.10400
Cu342      Cu  0.89663015  0.73439954  0.77135640     0.44200
Cu343      Cu  0.93296302  0.70263196  0.72790963     0.42000
Cu344      Cu  0.84614447  0.71238180  0.72360414     0.43900
N345        N  0.84257034  0.73404409  0.76666296    -0.33200
N346        N  0.82475062  0.72612066  0.74918233    -0.27500
C347        C  0.79128760  0.72909732  0.75070354    -0.03600
C348        C  0.78754574  0.73933940  0.77002302     0.08600
C349        C  0.82063853  0.74227201  0.77981723     0.02400
H350        H  0.77127846  0.72452715  0.73850354     0.08300
H351        H  0.82860150  0.75029309  0.79521475     0.09100
N352        N  0.87219718  0.69921694  0.69968831    -0.34700
N353        N  0.90422655  0.69505076  0.70133587    -0.26900
C354        C  0.91432670  0.68690263  0.68336464    -0.02100
C355        C  0.88727064  0.68588330  0.66974193     0.06500
C356        C  0.86086614  0.69380090  0.68061032     0.04600
H357        H  0.93957201  0.68216965  0.68043530     0.09700
H358        H  0.83528155  0.69542226  0.67523338     0.08500
O359        O  0.64264599  0.73576314  0.83839392    -0.71500
O360        O  0.72058531  0.85058101  0.82235642    -0.72500
O361        O  0.64160050  0.80923533  0.83968527    -0.61100
O362        O  0.72195407  0.77743249  0.82124656    -0.69500
O363        O  0.69444920  0.76356957  0.79132217    -0.69100
O364        O  0.61344107  0.79532058  0.80992132    -0.60300
O365        O  0.69249919  0.83646839  0.79256978    -0.72800
O366        O  0.61470727  0.72203063  0.80857509    -0.71600
Cu367      Cu  0.68257794  0.79365279  0.83147229     1.04600
Cu368      Cu  0.65283831  0.77882896  0.79954515     1.04300
C369        C  0.61624714  0.71089930  0.82610212     0.94700
C370        C  0.71878540  0.86153991  0.80481008     0.93800
C371        C  0.61498506  0.80747750  0.82783375     0.86000
C372        C  0.72127870  0.76601608  0.80328271     0.92200
N373        N  0.88513775  0.27079856  0.55177043    -0.25900
N374        N  0.86179372  0.26362303  0.53625924    -0.33700
C375        C  0.87988178  0.29522123  0.52394491     0.02500
C376        C  0.91654698  0.32378183  0.53222102     0.08500
C377        C  0.91888668  0.30721045  0.54982662    -0.04600
H378        H  0.86673678  0.29735515  0.51029093     0.09200
H379        H  0.94288606  0.32095722  0.56062239     0.10400
Cu380      Cu  0.80517241  0.21250767  0.53401310     0.44200
Cu381      Cu  0.86745648  0.23108014  0.57505928     0.42000
Cu382      Cu  0.76409431  0.14283976  0.57594860     0.43900
N383        N  0.74678944  0.16384786  0.53562039    -0.33200
N384        N  0.73109011  0.13840777  0.55058123    -0.27500
C385        C  0.69204283  0.11113171  0.54638034    -0.03600
C386        C  0.68314987  0.12022700  0.52794869     0.08600
C387        C  0.71849774  0.15372176  0.52169512     0.02400
H388        H  0.67180314  0.08669073  0.55603813     0.10100
H389        H  0.72341949  0.16966100  0.50791844     0.09100
N390        N  0.80668007  0.15788009  0.59849180    -0.34700
N391        N  0.84380915  0.18975470  0.59773042    -0.26900
C392        C  0.86365868  0.19184885  0.61432517    -0.02100
C393        C  0.83817469  0.15994102  0.62626150     0.06500
C394        C  0.80212286  0.13880305  0.61579691     0.04600
H395        H  0.89445138  0.21531606  0.61755850     0.09700
H396        H  0.77454755  0.11194912  0.62043364     0.08500
N397        N  0.80242755  0.01032810  0.75357512    -0.25900
N398        N  0.82509622  0.02043475  0.76961603    -0.33700
C399        C  0.80845035  0.98904117  0.78220753     0.02500
C400        C  0.77373097  0.95785181  0.77350577     0.08500
C401        C  0.77101288  0.97250141  0.75543533    -0.04600
H402        H  0.82113681  0.98880116  0.79637975     0.09200
H403        H  0.74805663  0.95658259  0.74427166     0.10400
Cu404      Cu  0.87846405  0.07600157  0.77264290     0.44200
Cu405      Cu  0.81511158  0.04707352  0.72935142     0.42000
Cu406      Cu  0.90799413  0.14184209  0.72891928     0.43900
N407        N  0.93149741  0.13208072  0.77046649    -0.33200
N408        N  0.94218590  0.15549335  0.75468955    -0.27500
C409        C  0.97857856  0.18867371  0.75799107    -0.03600
C410        C  0.99151664  0.18616989  0.77666036     0.08600
C411        C  0.96086114  0.14985488  0.78417314     0.02400
H412        H  0.99477215  0.21270016  0.74742146     0.10100
H413        H  0.96008918  0.13682016  0.79837056     0.09100
N414        N  0.86734157  0.12120564  0.70540060    -0.34700
N415        N  0.83283804  0.08627611  0.70583638    -0.26900
C416        C  0.81264260  0.08117485  0.68890739    -0.02100
C417        C  0.83547362  0.11440785  0.67711636     0.06500
C418        C  0.87009438  0.13931952  0.68805248     0.04600
H419        H  0.78343646  0.05506882  0.68542419     0.09700
H420        H  0.89529131  0.16849209  0.68387890     0.08500
O421        O  0.87462621  0.67117894  0.12703735    -0.71500
O422        O  0.82386197  0.72426729  0.15826293    -0.72500
O423        O  0.90339254  0.73675615  0.15458429    -0.61100
O424        O  0.79480262  0.65824631  0.13110072    -0.69500
O425        O  0.78305324  0.61726374  0.15635108    -0.69100
O426        O  0.89063206  0.69544597  0.17980191    -0.60300
O427        O  0.81128244  0.68315723  0.18352069    -0.72800
O428        O  0.86278481  0.62984733  0.15210641    -0.71600
Cu429      Cu  0.84963771  0.69907921  0.14188141     1.04600
Cu430      Cu  0.83652109  0.65491923  0.16879742     1.04300
C431        C  0.87660715  0.64201022  0.13456970     0.94700
C432        C  0.80965734  0.71237679  0.17572541     0.93800
C433        C  0.91386193  0.72866199  0.17098206     0.86000
C434        C  0.77177164  0.62526233  0.14021398     0.92200
N435        N  0.61108989  0.73149497  0.42533198    -0.25900
N436        N  0.59781786  0.74239069  0.44110209    -0.33700
C437        C  0.58253557  0.71233869  0.45431332     0.02500
C438        C  0.58610619  0.68082705  0.44642489     0.08500
C439        C  0.60449561  0.69399192  0.42799589    -0.04600
H440        H  0.56873256  0.71292893  0.46837763     0.09200
H441        H  0.61186667  0.67749875  0.41715473     0.10400
Cu442      Cu  0.59767464  0.79591944  0.44278938     0.44200
Cu443      Cu  0.63419483  0.76783825  0.40071619     0.42000
Cu444      Cu  0.62463514  0.85900832  0.39931591     0.43900
N445        N  0.59259479  0.84670695  0.44138507    -0.33200
N446        N  0.60182627  0.87012406  0.42571580    -0.27500
C447        C  0.59280680  0.89924058  0.42996635    -0.03600
C448        C  0.57710556  0.89340670  0.44920029     0.08600
C449        C  0.57748244  0.85991377  0.45584385     0.02400
H450        H  0.59652480  0.92221068  0.41968438     0.10100
H451        H  0.56677961  0.84559631  0.47010159     0.09100
N452        N  0.64627585  0.83822407  0.37582839    -0.34700
N453        N  0.65001606  0.80583605  0.37673004    -0.26900
C454        C  0.66378115  0.80020027  0.35920157    -0.02100
C455        C  0.66899196  0.83021921  0.34652111     0.06500
C456        C  0.65767046  0.85396397  0.35752416     0.04600
H457        H  0.66886934  0.77542565  0.35581509     0.09700
H458        H  0.65710263  0.88030440  0.35259476     0.08500
N459        N  0.74711157  0.95392702  0.21045955    -0.25900
N460        N  0.75510520  0.93861972  0.19449207    -0.33700
C461        C  0.76980479  0.96631849  0.18013414     0.02500
C462        C  0.77140152  0.00087557  0.18740631     0.08500
C463        C  0.75661084  0.99205574  0.20670678    -0.04600
H464        H  0.78055271  0.96228822  0.16579538     0.09200
H465        H  0.75457004  0.01216892  0.21750776     0.10400
Cu466      Cu  0.75190521  0.88354364  0.19378479     0.44200
Cu467      Cu  0.72859730  0.92311913  0.23694117     0.42000
Cu468      Cu  0.73353154  0.82951136  0.23919919     0.43900
N469        N  0.75706990  0.83304037  0.19620916    -0.33200
N470        N  0.75107146  0.81298960  0.21283712    -0.27500
C471        C  0.76010777  0.78365294  0.20951446    -0.03600
C472        C  0.77243473  0.78576448  0.18983429     0.08600
C473        C  0.77002273  0.81731661  0.18194388     0.02400
H474        H  0.75891314  0.76327183  0.22071357     0.10100
H475        H  0.77842516  0.82896620  0.16703330     0.09100
N476        N  0.71736180  0.85449476  0.26290264    -0.34700
N477        N  0.71540249  0.88786795  0.26189275    -0.26900
C478        C  0.70421530  0.89551515  0.27970328    -0.02100
C479        C  0.69886053  0.86573384  0.29262054     0.06500
C480        C  0.70743278  0.84012285  0.28148177     0.04600
H481        H  0.70038497  0.92107426  0.28301861     0.09700
H482        H  0.70655918  0.81303584  0.28639391     0.08500
O483        O  0.47536727  0.00078700  0.45842376    -0.71500
O484        O  0.57438944  0.05963764  0.49290166    -0.72500
O485        O  0.55084077  0.00359754  0.46049853    -0.61100
O486        O  0.49904521  0.05729623  0.49041570    -0.69500
O487        O  0.47202846  0.00747775  0.51216701    -0.69100
O488        O  0.52442527  0.95352592  0.48212029    -0.60300
O489        O  0.54716158  0.00947111  0.51447072    -0.72800
O490        O  0.44919322  0.95094877  0.48016862    -0.71600
Cu491      Cu  0.52589561  0.03214980  0.47484835     1.04600
Cu492      Cu  0.49725542  0.97860900  0.49797929     1.04300
C493        C  0.44671207  0.96613576  0.46391396     0.94700
C494        C  0.57635623  0.04381562  0.50909537     0.93800
C495        C  0.54551104  0.96987458  0.46644488     0.86000
C496        C  0.47739338  0.04107952  0.50590869     0.92200
N497        N  0.43030961  0.29051492  0.54793455    -0.25900
N498        N  0.44076526  0.27832840  0.53159613    -0.33700
C499        C  0.45832864  0.30904413  0.51879277     0.02500
C500        C  0.45907121  0.34239956  0.52748772     0.08500
C501        C  0.44095458  0.32951138  0.54594247    -0.04600
H502        H  0.47014236  0.30706587  0.50439118     0.09200
H503        H  0.43632836  0.34731463  0.55719301     0.10400
Cu504      Cu  0.43389431  0.22169407  0.52777747     0.44200
Cu505      Cu  0.40375824  0.25337282  0.57221080     0.42000
Cu506      Cu  0.39889103  0.15517849  0.56928811     0.43900
N507        N  0.43337738  0.16764603  0.52800258    -0.33200
N508        N  0.42122039  0.14316348  0.54334498    -0.27500
C509        C  0.42793366  0.11250880  0.53931686    -0.03600
C510        C  0.44525911  0.11827522  0.52050862     0.08600
C511        C  0.44812617  0.15340618  0.51383273     0.02400
H512        H  0.42188437  0.08872328  0.54958303     0.10100
H513        H  0.46139470  0.16838839  0.49994802     0.09100
N514        N  0.37811139  0.17486253  0.59319799    -0.34700
N515        N  0.37958673  0.21004132  0.59420715    -0.26900
C516        C  0.36327545  0.21274085  0.61160574    -0.02100
C517        C  0.35104823  0.17774262  0.62206163     0.06500
C518        C  0.36091113  0.15435703  0.60994131     0.04600
H519        H  0.36061597  0.23841187  0.61632453     0.09700
H520        H  0.35594522  0.12459720  0.61290924     0.08500
N521        N  0.24992627  0.02620830  0.75086052    -0.25900
N522        N  0.23831391  0.03665491  0.76742869    -0.33700
C523        C  0.22971647  0.00840735  0.78122943     0.02500
C524        C  0.23625301  0.97887985  0.77283432     0.08500
C525        C  0.24902209  0.99122688  0.75363957    -0.04600
H526        H  0.21855558  0.00893820  0.79602131     0.09200
H527        H  0.25629894  0.97545531  0.74233463     0.10400
Cu528      Cu  0.23262835  0.08771691  0.77006921     0.44200
Cu529      Cu  0.26523698  0.05829860  0.72473330     0.42000
Cu530      Cu  0.25513019  0.14553296  0.72460221     0.43900
N531        N  0.22814520  0.13930168  0.76743468    -0.33200
N532        N  0.23604512  0.15974782  0.75077436    -0.27500
C533        C  0.22995915  0.19097206  0.75370429    -0.03600
C534        C  0.21765972  0.19039331  0.77311177     0.08600
C535        C  0.21677754  0.15716066  0.78145846     0.02400
H536        H  0.23406406  0.21248161  0.74245831     0.10100
H537        H  0.20824636  0.14642976  0.79649326     0.09100
N538        N  0.27699351  0.12811795  0.70049404    -0.34700
N539        N  0.28066260  0.09573157  0.70051124    -0.26900
C540        C  0.29691013  0.09310347  0.68309197    -0.02100
C541        C  0.30396951  0.12552033  0.67160218     0.06500
C542        C  0.29089164  0.14713389  0.68309780     0.04600
H543        H  0.30378234  0.06972929  0.67922164     0.09700
H544        H  0.29178702  0.17483189  0.67933391     0.08500
O545        O  0.12925987  0.30894876  0.85120788    -0.71500
O546        O  0.16934720  0.23941419  0.82744136    -0.72500
O547        O  0.20590840  0.31374034  0.84921152    -0.61100
O548        O  0.09320753  0.23547101  0.82878302    -0.69500
O549        O  0.10823971  0.27097855  0.80114561    -0.69100
O550        O  0.22027731  0.34723421  0.82093852    -0.60300
O551        O  0.18342431  0.27294404  0.79918487    -0.72800
O552        O  0.14486875  0.34483395  0.82364967    -0.71600
Cu553      Cu  0.14890456  0.27322435  0.84013693     1.04600
Cu554      Cu  0.16470320  0.31019791  0.81024568     1.04300
C555        C  0.13116518  0.33805351  0.84150149     0.94700
C556        C  0.18224429  0.24473991  0.80954798     0.93800
C557        C  0.23081698  0.34290777  0.83814371     0.86000
C558        C  0.08318236  0.24091034  0.81160598     0.92200
C559        C  0.20694947  0.21922395  0.78205310    -0.15000
C560        C  0.19507450  0.21722960  0.80104836    -0.30200
H561        H  0.20829249  0.24238605  0.77253791     0.14000
H562        H  0.19362587  0.19410454  0.81061740     0.14600
C563        C  0.33168930  0.16845295  0.64191465    -0.15000
C564        C  0.32271381  0.13463505  0.65162366    -0.30200
H565        H  0.32518323  0.19043342  0.64871963     0.14000
H566        H  0.32980378  0.11298026  0.64494677     0.14600
C567        C  0.45872324  0.06148194  0.51679874    -0.15000
C568        C  0.46131350  0.09531057  0.50984133    -0.30200
H569        H  0.44306276  0.04873874  0.53072262     0.14000
H570        H  0.47652572  0.10738361  0.49573209     0.14600
C571        C  0.56067772  0.91523109  0.46068236    -0.15000
C572        C  0.56354233  0.94974707  0.45474397    -0.30200
H573        H  0.54568830  0.90215920  0.47471414     0.14000
H574        H  0.57918349  0.96349033  0.44094508     0.14600
C575        C  0.68230347  0.83361350  0.32557190    -0.15000
C576        C  0.68633145  0.86306497  0.31367675    -0.30200
H577        H  0.68866099  0.81075778  0.31982966     0.14000
H578        H  0.68017205  0.88603185  0.31942760     0.14600
C579        C  0.79160129  0.73281758  0.18709482    -0.15000
C580        C  0.78819555  0.76269518  0.17904953    -0.30200
H581        H  0.78156193  0.72356956  0.20225346     0.14000
H582        H  0.79808229  0.77142144  0.16379895     0.14600
C583        C  0.03090347  0.21581978  0.78557274    -0.15000
C584        C  0.04252957  0.21174430  0.80371371    -0.30200
H585        H  0.05136320  0.24168241  0.77659198     0.14000
H586        H  0.02230288  0.18606448  0.81281800     0.14600
C587        C  0.64534896  0.09968540  0.51636782    -0.15000
C588        C  0.61261403  0.06473062  0.52177494    -0.30200
H589        H  0.64514559  0.11344778  0.50246504     0.14000
H590        H  0.61272981  0.05043623  0.53550083     0.14600
C591        C  0.84892679  0.15262184  0.64607980    -0.15000
C592        C  0.82391579  0.12079274  0.65725282    -0.30200
H593        H  0.87885972  0.17449457  0.65154083     0.14000
H594        H  0.79417841  0.09851051  0.65171601     0.14600
C595        C  0.74757009  0.90347137  0.79866027    -0.15000
C596        C  0.74542570  0.91666820  0.78066074    -0.30200
H597        H  0.77076214  0.92360484  0.80904520     0.14000
H598        H  0.72170992  0.89638747  0.77051592     0.14600
C599        C  0.75525399  0.74675121  0.77749881    -0.15000
C600        C  0.75249925  0.75647860  0.79646814    -0.30200
H601        H  0.73327805  0.74466900  0.76679756     0.14000
H602        H  0.77439023  0.75869071  0.80724772     0.14600
C603        C  0.85930913  0.67646324  0.63614049    -0.15000
C604        C  0.88685865  0.67695531  0.64835969    -0.30200
H605        H  0.83691832  0.68369011  0.64178978     0.14000
H606        H  0.90930234  0.66977995  0.64273142     0.14600
C607        C  0.96860585  0.54287733  0.51574859    -0.15000
C608        C  0.93906487  0.54610709  0.50703248    -0.30200
H609        H  0.97798875  0.55422821  0.53075919     0.14000
H610        H  0.92986883  0.53444846  0.49204745     0.14600
C611        C  0.94671546  0.36411163  0.52473116    -0.15000
C612        C  0.94141030  0.37881997  0.50785430    -0.30200
H613        H  0.97393385  0.38211925  0.53340544     0.14000
H614        H  0.91422588  0.36096991  0.49915746     0.14600
C615        C  0.26857829  0.20295840  0.19519934    -0.15000
C616        C  0.26803886  0.18826073  0.17690283    -0.30200
H617        H  0.29362978  0.21024323  0.20503729     0.14000
H618        H  0.24274103  0.18033632  0.16716813     0.14600
C619        C  0.11568797  0.44050291  0.46188386    -0.15000
C620        C  0.08203846  0.43886295  0.45517135    -0.30200
H621        H  0.12855968  0.45561740  0.47593137     0.14000
H622        H  0.06966169  0.42484078  0.44088662     0.14600
C623        C  0.16577586  0.28364696  0.33313514    -0.15000
C624        C  0.13667849  0.28112174  0.32130383    -0.30200
H625        H  0.18696754  0.27484547  0.32751367     0.14000
H626        H  0.11513420  0.28952916  0.32688339     0.14600
C627        C  0.95322735  0.75827102  0.17960631    -0.15000
C628        C  0.96394427  0.75477255  0.19804314    -0.30200
H629        H  0.97347460  0.78398720  0.17057046     0.14000
H630        H  0.94302817  0.72966182  0.20729514     0.14600
C631        C  0.26014446  0.02525255  0.17876674    -0.15000
C632        C  0.29450477  0.05672732  0.18578197    -0.30200
H633        H  0.24920548  0.02673885  0.16421563     0.14000
H634        H  0.30514412  0.05586546  0.20048065     0.14600
C635        C  0.38171892  0.90543625  0.45604033    -0.15000
C636        C  0.41063178  0.94317238  0.45127418    -0.30200
H637        H  0.38480015  0.89189654  0.46942073     0.14000
H638        H  0.40828578  0.95697180  0.43783642     0.14600
C639        C  0.10013890  0.61562275  0.44708246    -0.15000
C640        C  0.10784226  0.60149376  0.46351710    -0.30200
H641        H  0.07170640  0.59724588  0.43930638     0.14000
H642        H  0.13586742  0.61988907  0.47158110     0.14600
C643        C  0.16374759  0.83351595  0.33175269    -0.15000
C644        C  0.18835143  0.86320578  0.31939436    -0.30200
H645        H  0.13280835  0.81203248  0.32744187     0.14000
H646        H  0.21957567  0.88424708  0.32350633     0.14600
C647        C  0.95442917  0.21229087  0.18241041    -0.15000
C648        C  0.98064362  0.20032501  0.17683345    -0.30200
H649        H  0.95901642  0.22903758  0.19621693     0.14000
H650        H  0.97648670  0.18411759  0.16287232     0.14600
C651        C  0.79396205  0.07353406  0.18494749    -0.15000
C652        C  0.78955069  0.03939172  0.17681393    -0.30200
H653        H  0.78285352  0.07366620  0.19987819     0.14000
H654        H  0.80045623  0.03961190  0.16178078     0.14600
C655        C  0.12455954  0.39904416  0.84442390    -0.15000
C656        C  0.11782118  0.36379302  0.85166054    -0.30200
H657        H  0.13926316  0.40914533  0.83003513     0.14000
H658        H  0.10373964  0.35406293  0.86616181     0.14600
C659        C  0.89451313  0.62217648  0.12252944    -0.15000
C660        C  0.89731601  0.59116899  0.12944496    -0.30200
H661        H  0.90450182  0.63263748  0.10750144     0.14000
H662        H  0.88712202  0.58085449  0.14449399     0.14600
C663        C  0.89892610  0.28294501  0.12070944    -0.15000
C664        C  0.89853492  0.31575332  0.12757019    -0.30200
H665        H  0.91101966  0.28284275  0.10601279     0.14000
H666        H  0.88638918  0.31543045  0.14231700     0.14600
C667        C  0.00763271  0.50598640  0.99232449    -0.15000
C668        C  0.01548306  0.48065020  0.98165719    -0.30200
H669        H  0.01352825  0.53420489  0.98596341     0.14000
H670        H  0.00899554  0.45211511  0.98787437     0.14600
C671        C  0.58578472  0.81965044  0.83483825    -0.15000
C672        C  0.58901383  0.83611791  0.85296063    -0.30200
H673        H  0.56188937  0.81558269  0.82492270     0.14000
H674        H  0.61363446  0.84083256  0.86255112     0.14600
C675        C  0.43253545  0.11421836  0.11738402    -0.15000
C676        C  0.43904000  0.13525390  0.13441031    -0.30200
H677        H  0.40495339  0.10490718  0.10909396     0.14000
H678        H  0.46642774  0.14469031  0.14286008     0.14600
C679        C  0.72327975  0.11635263  0.11197632    -0.15000
C680        C  0.73737708  0.14068941  0.12800601    -0.30200
H681        H  0.74222654  0.10669046  0.10428576     0.14000
H682        H  0.71853940  0.15053538  0.13558279     0.14600
C683        C  0.50078673  0.98126586  0.99085539    -0.15000
C684        C  0.52399283  0.97201462  0.97937034    -0.30200
H685        H  0.47181592  0.97599236  0.98549130     0.14000
H686        H  0.55277499  0.97697089  0.98480042     0.14600
C687        C  0.05243866  0.75681657  0.78448929    -0.15000
C688        C  0.06537960  0.77599600  0.80201394    -0.30200
H689        H  0.07284304  0.75144619  0.77520570     0.14000
H690        H  0.04523354  0.78114094  0.81158577     0.14600
C691        C  0.21580690  0.92930312  0.79997813    -0.15000
C692        C  0.22855012  0.94037015  0.78122420    -0.30200
H693        H  0.21203510  0.94960720  0.81003557     0.14000
H694        H  0.23256384  0.91996977  0.77132305     0.14600
C695        C  0.14734293  0.70201651  0.83955464    -0.15000
C696        C  0.13378790  0.69035359  0.85813798    -0.30200
H697        H  0.15055371  0.68166756  0.82928117     0.14000
H698        H  0.13043299  0.71081976  0.86829921     0.14600
C699        C  0.29709536  0.84921620  0.83814496    -0.15000
C700        C  0.30921621  0.86112294  0.85684645    -0.30200
H701        H  0.31682480  0.84538919  0.82761901     0.14000
H702        H  0.28964825  0.86557909  0.86723190     0.14600
C703        C  0.41432032  0.45924342  0.45836980    -0.15000
C704        C  0.39647796  0.43329178  0.44319338    -0.30200
H705        H  0.39690538  0.46841262  0.46771157     0.14000
H706        H  0.41378716  0.42348041  0.43414044     0.14600
C707        C  0.49313942  0.39275800  0.50111116    -0.15000
C708        C  0.47578975  0.38328630  0.51922991    -0.30200
H709        H  0.49549254  0.37024221  0.49214421     0.14000
H710        H  0.47316673  0.40578255  0.52813087     0.14600
C711        C  0.64997552  0.54379096  0.49184580    -0.15000
C712        C  0.66446018  0.56539422  0.50868951    -0.30200
H713        H  0.66914523  0.53681044  0.48251417     0.14000
H714        H  0.64508726  0.57246866  0.51782618     0.14600
C715        C  0.57129535  0.61017772  0.44667149    -0.15000
C716        C  0.57154231  0.64153017  0.45596937    -0.30200
H717        H  0.58198160  0.61294394  0.43141291     0.14000
H718        H  0.56016604  0.63830065  0.47112153     0.14600
C719        C  0.28604175  0.37153548  0.86292173    -0.15000
C720        C  0.27223673  0.37253808  0.84488407    -0.30200
H721        H  0.26647563  0.34784388  0.87318313     0.14000
H722        H  0.29173367  0.39617267  0.83461941     0.14600
C723        C  0.59109569  0.65399276  0.84911361    -0.15000
C724        C  0.58673885  0.66908053  0.83215992    -0.30200
H725        H  0.61762077  0.67235540  0.85822206     0.14000
H726        H  0.56118825  0.65052764  0.82254647     0.14600
C727        C  0.71740735  0.59942399  0.11508044    -0.15000
C728        C  0.73155970  0.59552684  0.13249228    -0.30200
H729        H  0.73600313  0.62541763  0.10580751     0.14000
H730        H  0.71334547  0.56909811  0.14151036     0.14600
C731        C  0.44274245  0.30517353  0.13433704    -0.15000
C732        C  0.41248838  0.27109462  0.12633537    -0.30200
H733        H  0.45305645  0.30506264  0.14923446     0.14000
H734        H  0.40259465  0.27087806  0.11132504     0.14600
C735        C  0.49252242  0.46019536  0.99443873    -0.15000
C736        C  0.51741930  0.48459092  0.98024088    -0.30200
H737        H  0.46150372  0.43730430  0.99091488     0.14000
H738        H  0.54871608  0.50681658  0.98368832     0.14600
loop_ 
_geom_bond_atom_site_label_1 
_geom_bond_atom_site_label_2 
_geom_bond_distance 
_geom_bond_site_symmetry_2 
_ccdc_geom_bond_type 
N1            N2   1.320       .  A
N1            C5   1.341       .  A
N1           Cu9   2.058       .  S
N2            C3   1.344       .  A
N2           Cu8   2.064       .  S
C3            C4   1.381       .  A
C3            H6   1.082       .  S
C4            C5   1.384       .  A
C4          C731   1.472       .  S
C5            H7   1.081       .  S
Cu8          N11   2.065       .  S
Cu9          N19   2.058       .  S
Cu10         N12   2.076       .  S
Cu10         N18   2.076       .  S
N11          N12   1.322       .  A
N11          C15   1.341       .  A
N12          C13   1.347       .  A
C13          C14   1.384       .  A
C13          H16   1.082       .  S
C14          C15   1.385       .  A
C14         C727   1.478       .  S
C15          H17   1.081       .  S
N18          N19   1.322       .  A
N18          C22   1.345       .  A
N19          C20   1.342       .  A
C20          C21   1.378       .  A
C20          H23   1.083       .  S
C21          C22   1.387       .  A
C21         C735   1.473   1_554  S
C22          H24   1.081       .  S
N25          N26   1.324       .  A
N25          C29   1.345       .  A
N25         Cu33   2.074       .  S
N26          C27   1.348       .  A
N26         Cu32   2.097       .  S
C27          C28   1.390       .  A
C27          H30   1.081       .  S
C28          C29   1.380       .  A
C28         C719   1.482       .  S
C29          H31   1.082       .  S
Cu32         N35   2.096       .  S
Cu33         N43   2.073       .  S
Cu34         N36   2.054       .  S
Cu34         N42   2.053       .  S
N35          N36   1.322       .  A
N35          C39   1.351       .  A
N36          C37   1.340       .  A
C37          C38   1.376       .  A
C37          H40   1.082       .  S
C38          C39   1.391       .  A
C38         C723   1.477       .  S
C39          H41   1.081       .  S
N42          N43   1.320       .  A
N42          C46   1.342       .  A
N43          C44   1.345       .  A
C44          C45   1.388       .  A
C44          H47   1.081       .  S
C45          C46   1.378       .  A
C45         C736   1.473       .  S
C46          H48   1.083       .  S
O49         Cu57   1.999       .  S
O49          C59   1.278       .  A
O50         Cu57   1.998       .  S
O50          C60   1.275       .  A
O51         Cu57   2.012       .  S
O51          C61   1.279       .  A
O52         Cu57   2.007       .  S
O52          C62   1.279       .  A
O53         Cu58   2.007       .  S
O53          C62   1.276       .  A
O54         Cu58   2.001       .  S
O54          C61   1.276       .  A
O55         Cu58   2.015       .  S
O55          C60   1.279       .  A
O56         Cu58   2.014       .  S
O56          C59   1.277       .  A
Cu57        Cu58   2.375       .  S
C59         C711   1.475       .  S
C60         C703   1.472       .  S
C61         C707   1.472       .  S
C62         C715   1.474       .  S
O63         Cu71   2.013       .  S
O63          C73   1.277       .  A
O64         Cu71   2.011       .  S
O64          C74   1.280       .  A
O65         Cu71   2.010       .  S
O65          C75   1.277       .  A
O66         Cu71   2.005       .  S
O66          C76   1.279       .  A
O67         Cu72   2.003       .  S
O67          C76   1.276       .  A
O68         Cu72   2.007       .  S
O68          C75   1.279       .  A
O69         Cu72   2.001       .  S
O69          C74   1.275       .  A
O70         Cu72   1.998       .  S
O70          C73   1.278       .  A
Cu71        Cu72   2.375       .  S
C73         C688   1.476       .  S
C74         C699   1.474       .  S
C75         C691   1.476       .  S
C76         C695   1.472       .  S
N77          N78   1.323       .  A
N77          C81   1.346       .  A
N77         Cu85   2.073       .  S
N78          C79   1.342       .  A
N78         Cu84   2.075       .  S
C79          C80   1.386       .  A
C79          H82   1.080       .  S
C80          C81   1.382       .  A
C80         C679   1.478       .  S
C81          H83   1.082       .  S
Cu84         N87   2.074       .  S
Cu85         N95   2.072       .  S
Cu86         N88   2.055       .  S
Cu86         N94   2.055       .  S
N87          N88   1.321       .  A
N87          C91   1.347       .  A
N88          C89   1.340       .  A
C89          C90   1.378       .  A
C89          H92   1.083       .  S
C90          C91   1.387       .  A
C90         C675   1.472       .  S
C91          H93   1.081       .  S
N94          N95   1.321       .  A
N94          C98   1.342       .  A
N95          C96   1.344       .  A
C96          C97   1.387   1_545  A
C96          H99   1.080       .  S
C97          C98   1.378   1_565  A
C97         C683   1.472   1_554  S
C98         H100   1.083       .  S
N101        N102   1.324       .  A
N101        C105   1.342       .  A
N101       Cu109   2.060       .  S
N102        C103   1.348       .  A
N102       Cu108   2.090       .  S
C103        C104   1.388       .  A
C103        H106   1.080       .  S
C104        C105   1.376       .  A
C104        C700   1.473       .  S
C105        H107   1.083       .  S
Cu108       N111   2.090       .  S
Cu109       N119   2.060       .  S
Cu110       N112   2.059       .  S
Cu110       N118   2.058       .  S
N111        N112   1.322       .  A
N111        C115   1.350       .  A
N112        C113   1.340       .  A
C113        C114   1.377       .  A
C113        H116   1.082       .  S
C114        C115   1.389       .  A
C114        C672   1.475       .  S
C115        H117   1.081       .  S
N118        N119   1.319       .  A
N118        C122   1.342       .  A
N119        C120   1.343       .  A
C120        C121   1.386       .  A
C120        H123   1.081       .  S
C121        C122   1.380       .  A
C121        C684   1.472       .  S
C122        H124   1.083       .  S
N125        N126   1.320       .  A
N125        C129   1.349       .  A
N125       Cu133   2.077       .  S
N126        C127   1.339       .  A
N126       Cu132   2.049       .  S
C127        C128   1.376       .  A
C127        H130   1.081       .  S
C128        C129   1.390       .  A
C128        C664   1.472       .  S
C129        H131   1.081       .  S
Cu132       N135   2.049       .  S
Cu133       N143   2.079       .  S
Cu134       N136   2.096       .  S
Cu134       N142   2.098       .  S
N135        N136   1.320       .  A
N135        C139   1.340       .  A
N136        C137   1.351       .  A
C137        C138   1.394       .  A
C137        H140   1.082       .  S
C138        C139   1.377       .  A
C138        C660   1.479       .  S
C139        H141   1.082       .  S
N142        N143   1.326       .  A
N142        C146   1.347       .  A
N143        C144   1.345       .  A
C144        C145   1.383       .  A
C144        H147   1.082       .  S
C145        C146   1.384       .  A
C145        C667   1.479   1_654  S
C146        H148   1.081       .  S
N149        N150   1.321       .  A
N149        C153   1.342       .  A
N149       Cu157   2.060       .  S
N150        C151   1.345       .  A
N150       Cu156   2.072       .  S
C151        C152   1.387       .  A
C151        H154   1.081       .  S
C152        C153   1.379       .  A
C152        C696   1.473       .  S
C153        H155   1.082       .  S
Cu156       N159   2.073       .  S
Cu157       N167   2.060       .  S
Cu158       N160   2.088       .  S
Cu158       N166   2.088       .  S
N159        N160   1.323       .  A
N159        C163   1.346       .  A
N160        C161   1.346       .  A
C161        C162   1.389       .  A
C161        H164   1.081       .  S
C162        C163   1.382       .  A
C162        C655   1.482       .  S
C163        H165   1.082       .  S
N166        N167   1.321       .  A
N166        C170   1.348       .  A
N167        C168   1.343       .  A
C168        C169   1.384       .  A
C168        H171   1.081       .  S
C169        C170   1.387       .  A
C169        C668   1.481       .  S
C170        H172   1.081       .  S
O173       Cu181   2.007       .  S
O173        C183   1.276       .  A
O174       Cu181   1.996       .  S
O174        C184   1.278       .  A
O175       Cu181   2.018       .  S
O175        C185   1.279       .  A
O176       Cu181   2.020       .  S
O176        C186   1.280       .  A
O177       Cu182   1.996       .  S
O177        C186   1.275       .  A
O178       Cu182   1.995       .  S
O178        C185   1.275       .  A
O179       Cu182   2.007       .  S
O179        C184   1.276       .  A
O180       Cu182   2.004       .  S
O180        C183   1.279       .  A
Cu181      Cu182   2.375       .  S
C183        C663   1.476       .  S
C184        C651   1.472       .  S
C185        C680   1.471       .  S
C186        C647   1.473       .  S
N187        N188   1.323       .  A
N187        C191   1.349       .  A
N187       Cu195   2.085       .  S
N188        C189   1.340       .  A
N188       Cu194   2.063       .  S
C189        C190   1.377       .  A
C189        H192   1.082       .  S
C190        C191   1.388       .  A
C190        C635   1.473       .  S
C191        H193   1.082       .  S
Cu194       N197   2.063       .  S
Cu195       N205   2.085       .  S
Cu196       N198   2.063       .  S
Cu196       N204   2.063       .  S
N197        N198   1.319       .  A
N197        C201   1.345       .  A
N198        C199   1.343       .  A
C199        C200   1.381       .  A
C199        H202   1.082       .  S
C200        C201   1.386       .  A
C200        C639   1.474       .  S
C201        H203   1.081       .  S
N204        N205   1.323       .  A
N204        C208   1.341       .  A
N205        C206   1.347       .  A
C206        C207   1.388       .  A
C206        H209   1.081       .  S
C207        C208   1.377       .  A
C207        C643   1.474       .  S
C208        H210   1.082       .  S
N211        N212   1.321       .  A
N211        C215   1.347       .  A
N211       Cu219   2.081       .  S
N212        C213   1.340       .  A
N212       Cu218   2.057       .  S
C213        C214   1.382       .  A
C213        H216   1.081       .  S
C214        C215   1.385       .  A
C214        C628   1.476   1_455  S
C215        H217   1.083   1_455  S
Cu218       N221   2.057       .  S
Cu219       N229   2.081       .  S
Cu220       N222   2.062       .  S
Cu220       N228   2.063       .  S
N221        N222   1.320       .  A
N221        C225   1.342       .  A
N222        C223   1.342       .  A
C223        C224   1.385       .  A
C223        H226   1.081       .  S
C224        C225   1.380       .  A
C224        C631   1.470   1_565  S
C225        H227   1.082       .  S
N228        N229   1.322       .  A
N228        C232   1.344       .  A
N229        C230   1.344       .  A
C230        C231   1.388       .  A
C230        H233   1.081       .  S
C231        C232   1.380       .  A
C231        C644   1.477       .  S
C232        H234   1.082       .  S
N235        N236   1.319       .  A
N235        C239   1.344       .  A
N235       Cu243   2.061       .  S
N236        C237   1.343       .  A
N236       Cu242   2.066       .  S
C237        C238   1.387       .  A
C237        H240   1.081       .  S
C238        C239   1.382       .  A
C238        C704   1.476       .  S
C239        H241   1.082       .  S
Cu242       N245   2.067       .  S
Cu243       N253   2.062       .  S
Cu244       N246   2.082       .  S
Cu244       N252   2.081       .  S
N245        N246   1.323       .  A
N245        C249   1.343       .  A
N246        C247   1.347       .  A
C247        C248   1.387       .  A
C247        H250   1.081       .  S
C248        C249   1.379       .  A
C248        C619   1.475       .  S
C249        H251   1.082       .  S
N252        N253   1.323       .  A
N252        C256   1.348       .  A
N253        C254   1.340       .  A
C254        C255   1.377       .  A
C254        H257   1.081       .  S
C255        C256   1.387       .  A
C255        C623   1.472       .  S
C256        H258   1.081       .  S
N259        N260   1.323       .  A
N259        C263   1.344       .  A
N259       Cu267   2.074       .  S
N260        C261   1.346       .  A
N260       Cu266   2.076       .  S
C261        C262   1.382       .  A
C261        H264   1.081       .  S
C262        C263   1.386       .  A
C262        C648   1.478   1_455  S
C263        H265   1.081       .  S
Cu266       N269   2.076       .  S
Cu267       N277   2.073       .  S
Cu268       N270   2.065       .  S
Cu268       N276   2.065       .  S
N269        N270   1.321       .  A
N269        C273   1.345       .  A
N270        C271   1.344       .  A
C271        C272   1.381       .  A
C271        H274   1.081       .  S
C272        C273   1.388       .  A
C272        C615   1.478       .  S
C273        H275   1.081       .  S
N276        N277   1.321       .  A
N276        C280   1.341       .  A
N277        C278   1.347       .  A
C278        C279   1.384       .  A
C278        H281   1.082       .  S
C279        C280   1.386       .  A
C279        C624   1.478       .  S
C280        H282   1.080       .  S
O283       Cu291   1.997       .  S
O283        C293   1.278       .  A
O284       Cu291   1.998       .  S
O284        C294   1.275       .  A
O285       Cu291   1.998       .  S
O285        C295   1.276       .  A
O286       Cu291   1.998       .  S
O286        C296   1.278       .  A
O287       Cu292   2.001       .  S
O287        C296   1.276       .  A
O288       Cu292   2.003       .  S
O288        C295   1.278       .  A
O289       Cu292   2.018       .  S
O289        C294   1.280       .  A
O290       Cu292   2.016       .  S
O290        C293   1.277       .  A
Cu291      Cu292   2.376       .  S
C293        C676   1.475       .  S
C294        C616   1.474       .  S
C295        C732   1.468       .  S
C296        C632   1.468       .  S
O297       Cu305   2.015       .  S
O297        C307   1.277   1_455  A
O298       Cu305   2.012       .  S
O298        C308   1.279       .  A
O299       Cu305   2.012       .  S
O299        C309   1.277       .  A
O300       Cu305   2.013       .  S
O300        C310   1.279   1_455  A
O301       Cu306   2.001   1_655  S
O301        C310   1.276       .  A
O302       Cu306   2.001       .  S
O302        C309   1.278       .  A
O303       Cu306   2.004       .  S
O303        C308   1.276       .  A
O304       Cu306   1.999   1_655  S
O304        C307   1.278       .  A
Cu305      Cu306   2.375       .  S
C307        C607   1.476       .  S
C308        C620   1.475       .  S
C309        C640   1.474       .  S
C310        C612   1.473       .  S
N311        N312   1.320       .  A
N311        C315   1.342       .  A
N311       Cu319   2.062       .  S
N312        C313   1.346       .  A
N312       Cu318   2.069       .  S
C313        C314   1.386       .  A
C313        H316   1.082       .  S
C314        C315   1.380       .  A
C314        C712   1.473       .  S
C315        H317   1.082       .  S
Cu318       N321   2.069       .  S
Cu319       N329   2.062       .  S
Cu320       N322   2.073       .  S
Cu320       N328   2.073       .  S
N321        N322   1.323       .  A
N321        C325   1.341       .  A
N322        C323   1.347       .  A
C323        C324   1.386       .  A
C323        H326   1.082       .  S
C324        C325   1.379       .  A
C324        C608   1.473       .  S
C325        H327   1.082       .  S
N328        N329   1.322       .  A
N328        C332   1.345       .  A
N329        C330   1.342       .  A
C330        C331   1.379       .  A
C330        H333   1.082       .  S
C331        C332   1.386       .  A
C331        C603   1.472       .  S
C332        H334   1.081       .  S
N335        N336   1.323       .  A
N335        C339   1.340       .  A
N335       Cu343   2.056       .  S
N336        C337   1.349       .  A
N336       Cu342   2.088       .  S
C337        C338   1.388   1_655  A
C337        H340   1.081       .  S
C338        C339   1.376   1_455  A
C338        C687   1.472       .  S
C339        H341   1.083   1_655  S
Cu342       N345   2.089       .  S
Cu343       N353   2.056       .  S
Cu344       N346   2.066       .  S
Cu344       N352   2.065       .  S
N345        N346   1.323       .  A
N345        C349   1.349       .  A
N346        C347   1.342       .  A
C347        C348   1.379       .  A
C347        H350   1.083       .  S
C348        C349   1.390       .  A
C348        C599   1.478       .  S
C349        H351   1.081       .  S
N352        N353   1.319       .  A
N352        C356   1.343       .  A
N353        C354   1.343       .  A
C354        C355   1.381       .  A
C354        H357   1.083       .  S
C355        C356   1.387       .  A
C355        C604   1.473       .  S
C356        H358   1.080       .  S
O359       Cu367   2.015       .  S
O359        C369   1.280       .  A
O360       Cu367   2.016       .  S
O360        C370   1.277       .  A
O361       Cu367   2.006       .  S
O361        C371   1.279       .  A
O362       Cu367   2.006       .  S
O362        C372   1.276       .  A
O363       Cu368   2.020       .  S
O363        C372   1.280       .  A
O364       Cu368   2.017       .  S
O364        C371   1.277       .  A
O365       Cu368   2.007       .  S
O365        C370   1.279       .  A
O366       Cu368   2.011       .  S
O366        C369   1.276       .  A
Cu367      Cu368   2.373       .  S
C369        C724   1.479       .  S
C370        C595   1.479       .  S
C371        C671   1.479       .  S
C372        C600   1.478       .  S
N373        N374   1.318       .  A
N373        C377   1.344       .  A
N373       Cu381   2.062       .  S
N374        C375   1.344       .  A
N374       Cu380   2.061       .  S
C375        C376   1.387       .  A
C375        H378   1.080       .  S
C376        C377   1.382       .  A
C376        C611   1.476       .  S
C377        H379   1.081       .  S
Cu380       N383   2.062       .  S
Cu381       N391   2.063       .  S
Cu382       N384   2.096       .  S
Cu382       N390   2.096       .  S
N383        N384   1.324       .  A
N383        C387   1.341       .  A
N384        C385   1.350       .  A
C385        C386   1.390       .  A
C385        H388   1.082       .  S
C386        C387   1.376       .  A
C386        C587   1.477       .  S
C387        H389   1.082       .  S
N390        N391   1.324       .  A
N390        C394   1.350       .  A
N391        C392   1.341       .  A
C392        C393   1.377       .  A
C392        H395   1.082       .  S
C393        C394   1.391       .  A
C393        C591   1.478       .  S
C394        H396   1.081       .  S
N397        N398   1.322       .  A
N397        C401   1.341   1_545  A
N397       Cu405   2.063       .  S
N398        C399   1.349   1_545  A
N398       Cu404   2.083       .  S
C399        C400   1.389       .  A
C399        H402   1.081       .  S
C400        C401   1.379       .  A
C400        C596   1.476       .  S
C401        H403   1.083       .  S
Cu404       N407   2.083       .  S
Cu405       N415   2.062       .  S
Cu406       N408   2.086       .  S
Cu406       N414   2.085       .  S
N407        N408   1.324       .  A
N407        C411   1.347       .  A
N408        C409   1.345       .  A
C409        C410   1.383       .  A
C409        H412   1.082       .  S
C410        C411   1.386       .  A
C410        C583   1.480   1_655  S
C411        H413   1.081       .  S
N414        N415   1.321       .  A
N414        C418   1.347       .  A
N415        C416   1.344       .  A
C416        C417   1.380       .  A
C416        H419   1.082       .  S
C417        C418   1.391       .  A
C417        C592   1.480       .  S
C418        H420   1.081       .  S
O421       Cu429   2.005       .  S
O421        C431   1.275       .  A
O422       Cu429   2.002       .  S
O422        C432   1.278       .  A
O423       Cu429   2.012       .  S
O423        C433   1.278       .  A
O424       Cu429   2.014       .  S
O424        C434   1.279       .  A
O425       Cu430   1.997       .  S
O425        C434   1.276       .  A
O426       Cu430   1.999       .  S
O426        C433   1.276       .  A
O427       Cu430   2.019       .  S
O427        C432   1.278       .  A
O428       Cu430   2.024       .  S
O428        C431   1.281       .  A
Cu429      Cu430   2.375       .  S
C431        C659   1.480       .  S
C432        C579   1.479       .  S
C433        C627   1.472       .  S
C434        C728   1.471       .  S
N435        N436   1.319       .  A
N435        C439   1.345       .  A
N435       Cu443   2.065       .  S
N436        C437   1.342       .  A
N436       Cu442   2.059       .  S
C437        C438   1.380       .  A
C437        H440   1.082       .  S
C438        C439   1.387       .  A
C438        C716   1.474       .  S
C439        H441   1.082       .  S
Cu442       N445   2.059       .  S
Cu443       N453   2.066       .  S
Cu444       N446   2.097       .  S
Cu444       N452   2.097       .  S
N445        N446   1.322       .  A
N445        C449   1.341       .  A
N446        C447   1.351       .  A
C447        C448   1.392       .  A
C447        H450   1.082       .  S
C448        C449   1.377       .  A
C448        C571   1.479       .  S
C449        H451   1.082       .  S
N452        N453   1.324       .  A
N452        C456   1.349       .  A
N453        C454   1.342       .  A
C454        C455   1.377       .  A
C454        H457   1.083       .  S
C455        C456   1.389       .  A
C455        C575   1.477       .  S
C456        H458   1.081       .  S
N459        N460   1.320       .  A
N459        C463   1.346       .  A
N459       Cu467   2.067       .  S
N460        C461   1.340       .  A
N460       Cu466   2.055       .  S
C461        C462   1.378   1_565  A
C461        H464   1.082       .  S
C462        C463   1.386   1_545  A
C462        C652   1.469       .  S
C463        H465   1.082   1_565  S
Cu466       N469   2.056       .  S
Cu467       N477   2.068       .  S
Cu468       N470   2.086       .  S
Cu468       N476   2.088       .  S
N469        N470   1.321       .  A
N469        C473   1.341       .  A
N470        C471   1.349       .  A
C471        C472   1.389       .  A
C471        H474   1.081       .  S
C472        C473   1.378       .  A
C472        C580   1.475       .  S
C473        H475   1.083       .  S
N476        N477   1.324       .  A
N476        C480   1.346       .  A
N477        C478   1.343       .  A
C478        C479   1.379       .  A
C478        H481   1.082       .  S
C479        C480   1.388       .  A
C479        C576   1.478       .  S
C480        H482   1.082       .  S
O483       Cu491   2.018       .  S
O483        C493   1.278   1_545  A
O484       Cu491   2.019       .  S
O484        C494   1.281       .  A
O485       Cu491   2.008       .  S
O485        C495   1.276   1_545  A
O486       Cu491   2.003       .  S
O486        C496   1.278       .  A
O487       Cu492   2.020   1_545  S
O487        C496   1.278       .  A
O488       Cu492   2.020       .  S
O488        C495   1.281       .  A
O489       Cu492   2.003   1_545  S
O489        C494   1.275       .  A
O490       Cu492   1.999       .  S
O490        C493   1.278       .  A
Cu491      Cu492   2.373   1_545  S
C493        C636   1.478       .  S
C494        C588   1.478       .  S
C495        C572   1.480       .  S
C496        C567   1.479       .  S
N497        N498   1.321       .  A
N497        C501   1.347       .  A
N497       Cu505   2.074       .  S
N498        C499   1.342       .  A
N498       Cu504   2.065       .  S
C499        C500   1.385       .  A
C499        H502   1.081       .  S
C500        C501   1.384       .  A
C500        C708   1.478       .  S
C501        H503   1.082       .  S
Cu504       N507   2.066       .  S
Cu505       N515   2.075       .  S
Cu506       N508   2.076       .  S
Cu506       N514   2.077       .  S
N507        N508   1.321       .  A
N507        C511   1.342       .  A
N508        C509   1.348       .  A
C509        C510   1.388       .  A
C509        H512   1.082       .  S
C510        C511   1.380       .  A
C510        C568   1.476       .  S
C511        H513   1.082       .  S
N514        N515   1.323       .  A
N514        C518   1.344       .  A
N515        C516   1.345       .  A
C516        C517   1.381       .  A
C516        H519   1.082       .  S
C517        C518   1.385       .  A
C517        C563   1.476       .  S
C518        H520   1.081       .  S
N521        N522   1.323       .  A
N521        C525   1.343   1_545  A
N521       Cu529   2.068       .  S
N522        C523   1.347       .  A
N522       Cu528   2.083       .  S
C523        C524   1.388   1_545  A
C523        H526   1.081       .  S
C524        C525   1.379       .  A
C524        C692   1.475       .  S
C525        H527   1.082       .  S
Cu528       N531   2.084       .  S
Cu529       N539   2.067       .  S
Cu530       N532   2.064       .  S
Cu530       N538   2.064       .  S
N531        N532   1.323       .  A
N531        C535   1.347       .  A
N532        C533   1.343       .  A
C533        C534   1.378       .  A
C533        H536   1.081       .  S
C534        C535   1.389       .  A
C534        C559   1.477       .  S
C535        H537   1.082       .  S
N538        N539   1.320       .  A
N538        C542   1.344       .  A
N539        C540   1.344       .  A
C540        C541   1.382       .  A
C540        H543   1.082       .  S
C541        C542   1.386       .  A
C541        C564   1.475       .  S
C542        H544   1.081       .  S
O545       Cu553   1.997       .  S
O545        C555   1.275       .  A
O546       Cu553   1.997       .  S
O546        C556   1.275       .  A
O547       Cu553   2.028       .  S
O547        C557   1.281       .  A
O548       Cu553   2.026       .  S
O548        C558   1.280       .  A
O549       Cu554   2.004       .  S
O549        C558   1.277       .  A
O550       Cu554   2.001       .  S
O550        C557   1.275       .  A
O551       Cu554   2.023       .  S
O551        C556   1.281       .  A
O552       Cu554   2.027       .  S
O552        C555   1.281       .  A
Cu553      Cu554   2.374       .  S
C555        C656   1.476       .  S
C556        C560   1.475       .  S
C557        C720   1.479       .  S
C558        C584   1.481       .  S
C559        C560   1.341       .  D
C559        H561   1.086       .  S
C560        H562   1.085       .  S
C563        C564   1.343       .  D
C563        H565   1.085       .  S
C564        H566   1.085       .  S
C567        C568   1.345       .  D
C567        H569   1.085       .  S
C568        H570   1.086       .  S
C571        C572   1.342       .  D
C571        H573   1.087       .  S
C572        H574   1.086       .  S
C575        C576   1.341       .  D
C575        H577   1.086       .  S
C576        H578   1.085       .  S
C579        C580   1.343       .  D
C579        H581   1.085       .  S
C580        H582   1.087       .  S
C583        C584   1.347       .  D
C583        H585   1.087       .  S
C584        H586   1.086       .  S
C587        C588   1.341       .  D
C587        H589   1.087       .  S
C588        H590   1.086       .  S
C591        C592   1.341       .  D
C591        H593   1.086       .  S
C592        H594   1.086       .  S
C595        C596   1.343       .  D
C595        H597   1.086       .  S
C596        H598   1.087       .  S
C599        C600   1.342       .  D
C599        H601   1.088       .  S
C600        H602   1.088       .  S
C603        C604   1.341       .  D
C603        H605   1.086       .  S
C604        H606   1.086       .  S
C607        C608   1.343       .  D
C607        H609   1.086       .  S
C608        H610   1.086       .  S
C611        C612   1.343       .  D
C611        H613   1.086       .  S
C612        H614   1.085       .  S
C615        C616   1.342       .  D
C615        H617   1.086       .  S
C616        H618   1.084       .  S
C619        C620   1.342       .  D
C619        H621   1.087       .  S
C620        H622   1.086       .  S
C623        C624   1.342       .  D
C623        H625   1.084       .  S
C624        H626   1.085       .  S
C627        C628   1.346       .  D
C627        H629   1.084       .  S
C628        H630   1.086       .  S
C631        C632   1.341       .  D
C631        H633   1.087       .  S
C632        H634   1.085       .  S
C635        C636   1.343       .  D
C635        H637   1.087       .  S
C636        H638   1.086       .  S
C639        C640   1.343       .  D
C639        H641   1.087       .  S
C640        H642   1.087       .  S
C643        C644   1.341       .  D
C643        H645   1.085       .  S
C644        H646   1.086       .  S
C647        C648   1.343       .  D
C647        H649   1.086       .  S
C648        H650   1.087       .  S
C651        C652   1.341       .  D
C651        H653   1.086       .  S
C652        H654   1.087       .  S
C655        C656   1.343       .  D
C655        H657   1.086       .  S
C656        H658   1.084       .  S
C659        C660   1.341       .  D
C659        H661   1.086       .  S
C660        H662   1.087       .  S
C663        C664   1.341       .  D
C663        H665   1.086       .  S
C664        H666   1.087       .  S
C667        C668   1.347       .  D
C667        H669   1.084       .  S
C668        H670   1.084       .  S
C671        C672   1.343       .  D
C671        H673   1.086       .  S
C672        H674   1.087       .  S
C675        C676   1.342       .  D
C675        H677   1.088       .  S
C676        H678   1.086       .  S
C679        C680   1.343       .  D
C679        H681   1.087       .  S
C680        H682   1.085       .  S
C683        C684   1.340       .  D
C683        H685   1.087       .  S
C684        H686   1.086       .  S
C687        C688   1.342       .  D
C687        H689   1.087       .  S
C688        H690   1.086       .  S
C691        C692   1.343       .  D
C691        H693   1.085       .  S
C692        H694   1.086       .  S
C695        C696   1.342       .  D
C695        H697   1.085       .  S
C696        H698   1.087       .  S
C699        C700   1.340       .  D
C699        H701   1.087       .  S
C700        H702   1.088       .  S
C703        C704   1.342       .  D
C703        H705   1.085       .  S
C704        H706   1.087       .  S
C707        C708   1.344       .  D
C707        H709   1.085       .  S
C708        H710   1.087       .  S
C711        C712   1.343       .  D
C711        H713   1.086       .  S
C712        H714   1.087       .  S
C715        C716   1.342       .  D
C715        H717   1.086       .  S
C716        H718   1.087       .  S
C719        C720   1.343       .  D
C719        H721   1.086       .  S
C720        H722   1.085       .  S
C723        C724   1.341       .  D
C723        H725   1.088       .  S
C724        H726   1.087       .  S
C727        C728   1.343       .  D
C727        H729   1.086       .  S
C728        H730   1.084       .  S
C731        C732   1.342       .  D
C731        H733   1.086       .  S
C732        H734   1.085       .  S
C735        C736   1.340       .  D
C735        H737   1.086       .  S
C736        H738   1.086       .  S
