geometry optimzed in LAMMPS
_audit_creation_date              2020-11-30 
_audit_creation_method            'lammps2cif' 
_symmetry_space_group_name_H-M    'P1' 
_symmetry_Int_Tables_number       1 
_symmetry_cell_setting            triclinic 
loop_ 
_symmetry_equiv_pos_as_xyz 
  x,y,z 
_cell_length_a                    26.99874501 
_cell_length_b                    26.966135753932864 
_cell_length_c                    26.961270574032046 
_cell_angle_alpha                 89.99906086422278 
_cell_angle_beta                  90.0015920930723 
_cell_angle_gamma                 89.99330796906708 
loop_ 
_atom_site_label 
_atom_site_type_symbol 
_atom_site_fract_x 
_atom_site_fract_y 
_atom_site_fract_z 
_atom_site_charge 
O1          O  0.99935064  0.07873238  0.14190490    -0.86500
O2          O  0.99652263  0.08148634  0.86030806    -0.86600
O3          O  0.07948668  0.14110178  0.00131861    -0.88300
O4          O  0.91871831  0.14037633  0.00152513    -0.87000
O5          O  0.85847095  0.08022298  0.00043354    -0.86600
O6          O  0.14009560  0.08133314  0.00080869    -0.88000
O7          O  0.99772721  0.14182873  0.92040593    -0.86500
O8          O  0.00049976  0.13939874  0.08211676    -0.86100
Zr9        Zr  0.99921347  0.09985431  0.00077034     2.84300
O10         O  0.94893785  0.05022991  0.95044315    -1.08000
O11         O  0.04942053  0.04968510  0.05051916    -1.08800
C12         C  0.00010933  0.12446780  0.12763959     1.06700
C13         C  0.99647261  0.12709835  0.87478702     1.06600
C14         C  0.12516432  0.12685063  0.00120830     1.09600
C15         C  0.87314751  0.12585808  0.00106919     1.07400
H16         H  0.06987920  0.07171816  0.92917427     0.32900
O17         O  0.04946682  0.05079334  0.94983379    -1.29000
H18         H  0.92846028  0.06983967  0.07156670     0.32600
O19         O  0.94908813  0.04941973  0.05062250    -1.30700
O20         O  0.99985366  0.92076944  0.85779757    -0.86500
O21         O  0.99847083  0.91745085  0.13939356    -0.87900
O22         O  0.13992464  0.99983060  0.91866729    -0.86500
O23         O  0.85834798  0.00092931  0.91973945    -0.86600
O24         O  0.85853188  0.99802573  0.08081698    -0.86300
O25         O  0.14006389  0.00115946  0.08096587    -0.86100
O26         O  0.08129653  0.85949823  0.99730311    -0.86500
O27         O  0.92006097  0.85834009  0.00003311    -0.85900
O28         O  0.14097214  0.92019359  0.99850626    -0.87000
O29         O  0.85937072  0.91807954  0.00057737    -0.86200
O30         O  0.07938446  0.00031925  0.85877974    -0.86500
O31         O  0.07958815  0.00026543  0.14089411    -0.86300
O32         O  0.91897812  0.99842130  0.14074751    -0.85900
O33         O  0.91826495  0.00087529  0.85927286    -0.86300
O34         O  0.00117835  0.86013376  0.91758431    -0.86600
O35         O  0.00053263  0.85761877  0.07880119    -0.88000
Zr36       Zr  0.99900275  0.00062694  0.90000427     2.83100
Zr37       Zr  0.99940375  0.99873797  0.09978182     2.83500
Zr38       Zr  0.09963024  0.00046570  0.99980338     2.84100
Zr39       Zr  0.89935443  0.99932793  0.00017008     2.83400
Zr40       Zr  0.00030513  0.89973114  0.99883070     2.84200
O41         O  0.94967038  0.94872339  0.04949292    -1.08500
O42         O  0.04987738  0.95055188  0.94919192    -1.08000
C43         C  0.00082883  0.87505893  0.87207525     1.06600
C44         C  0.99931906  0.87193015  0.12451278     1.09200
C45         C  0.12506162  0.99975564  0.87308656     1.06800
C46         C  0.87274428  0.00112531  0.87405820     1.07200
C47         C  0.87334567  0.99812937  0.12636739     1.06700
C48         C  0.12520809  0.00119223  0.12656253     1.06300
C49         C  0.12676456  0.87446609  0.99754935     1.06700
C50         C  0.87435929  0.87254840  0.00066914     1.06200
H51         H  0.07100810  0.92859049  0.07018772     0.32900
O52         O  0.05023597  0.94929922  0.04966406    -1.29600
H53         H  0.92863943  0.92894528  0.92852245     0.32900
O54         O  0.94921637  0.94956139  0.94932736    -1.31000
O55         O  0.00156146  0.42202100  0.35713923    -0.86500
O56         O  0.99886742  0.41693829  0.63881180    -0.86600
O57         O  0.08009006  0.35898550  0.49779863    -0.88300
O58         O  0.91862071  0.35912192  0.49937504    -0.87000
O59         O  0.85884375  0.41972417  0.50070147    -0.86600
O60         O  0.14049491  0.41897997  0.49956720    -0.88000
O61         O  0.99769680  0.35693649  0.57837943    -0.86500
O62         O  0.00009407  0.36101186  0.41659934    -0.86100
Zr63       Zr  0.99945576  0.39970385  0.49841949     2.84300
O64         O  0.94936207  0.44900826  0.54913428    -1.08000
O65         O  0.04989204  0.45064269  0.44949129    -1.08800
C66         C  0.00109366  0.37620758  0.37115652     1.06700
C67         C  0.99792273  0.37140960  0.62409604     1.06600
C68         C  0.12572924  0.37340252  0.49854264     1.09600
C69         C  0.87313520  0.37401126  0.50055838     1.07400
H70         H  0.07029555  0.42754981  0.57017818     0.32900
O71         O  0.04980415  0.44855003  0.54967031    -1.29000
H72         H  0.92902175  0.43021942  0.42775374     0.32600
O73         O  0.94963482  0.45059440  0.44875848    -1.30700
O74         O  0.00080441  0.57755985  0.64292447    -0.86500
O75         O  0.00059114  0.58345125  0.36126106    -0.87900
O76         O  0.14013512  0.49988447  0.58163323    -0.86500
O77         O  0.85871892  0.49953559  0.58048166    -0.86600
O78         O  0.85940109  0.50022486  0.41907429    -0.86300
O79         O  0.14111041  0.49921290  0.42037983    -0.86100
O80         O  0.07998972  0.64092550  0.50200995    -0.86500
O81         O  0.91945124  0.64088169  0.50049993    -0.85900
O82         O  0.14042975  0.58096250  0.50156587    -0.87000
O83         O  0.85905445  0.58097586  0.49808784    -0.86200
O84         O  0.07952237  0.49853965  0.64136807    -0.86500
O85         O  0.08139102  0.50043697  0.35969841    -0.86300
O86         O  0.91947076  0.50256040  0.35875991    -0.85900
O87         O  0.91898013  0.49629794  0.64052773    -0.86300
O88         O  0.00080497  0.63856350  0.58349267    -0.86600
O89         O  0.99910031  0.64282147  0.42233373    -0.88000
Zr90       Zr  0.99945505  0.49819749  0.59987523     2.83100
Zr91       Zr  0.00023411  0.50164825  0.39989668     2.83500
Zr92       Zr  0.09984755  0.49985633  0.50064651     2.84100
Zr93       Zr  0.89978969  0.50019878  0.49980048     2.83400
Zr94       Zr  0.99978971  0.59983429  0.50180627     2.84200
O95         O  0.94990071  0.55095807  0.45049908    -1.08500
O96         O  0.04985749  0.54927932  0.55134559    -1.08000
C97         C  0.00124362  0.62335402  0.62891602     1.06600
C98         C  0.99979292  0.62886411  0.37651069     1.09200
C99         C  0.12518049  0.49942697  0.62714680     1.06800
C100        C  0.87340306  0.49762332  0.62606373     1.07200
C101        C  0.87387940  0.50138462  0.37343287     1.06700
C102        C  0.12688249  0.49936366  0.37464880     1.06300
C103        C  0.12561063  0.62656954  0.50174270     1.06700
C104        C  0.87385272  0.62653655  0.49862447     1.06200
H105        H  0.07105251  0.57186217  0.43056222     0.32900
O106        O  0.05030196  0.55092424  0.45086311    -1.29600
H107        H  0.92856634  0.57003211  0.57216855     0.32900
O108        O  0.94921243  0.54961395  0.55122975    -1.31000
O109        O  0.63987595  0.99873318  0.41796443    -0.86500
O110        O  0.35835177  0.00167138  0.41949356    -0.86600
O111        O  0.49936440  0.91851145  0.35989347    -0.88300
O112        O  0.49787286  0.07974176  0.35809484    -0.87000
O113        O  0.50026038  0.13980242  0.41845346    -0.86600
O114        O  0.49917888  0.85812656  0.41995606    -0.88000
O115        O  0.41857184  0.00030123  0.35933846    -0.86500
O116        O  0.57915654  0.99756435  0.35829885    -0.86100
Zr117      Zr  0.49911605  0.99949555  0.39985809     2.84300
O118        O  0.44960719  0.05014547  0.44982744    -1.08000
O119        O  0.54940236  0.94920719  0.44942023    -1.08800
C120        C  0.62484435  0.99778347  0.37248009     1.06700
C121        C  0.37300416  0.00140083  0.37384436     1.06600
C122        C  0.49939506  0.87285599  0.37435912     1.09600
C123        C  0.49887063  0.12532319  0.37281538     1.07400
H124        H  0.42809371  0.92893738  0.42945919     0.32900
O125        O  0.44888303  0.94961901  0.44999364    -1.29000
H126        H  0.57081816  0.07028510  0.42802595     0.32600
O127        O  0.55015961  0.04978982  0.44888158    -1.30700
O128        O  0.35939284  0.99956721  0.58142460    -0.86500
O129        O  0.64119474  0.99890850  0.57928250    -0.87900
O130        O  0.41887166  0.85942173  0.50171255    -0.86500
O131        O  0.42026406  0.14130570  0.49883423    -0.86600
O132        O  0.58136124  0.14033269  0.50092031    -0.86300
O133        O  0.57959403  0.85856843  0.49835233    -0.86100
O134        O  0.49906849  0.92005964  0.64159078    -0.86500
O135        O  0.50127158  0.08126966  0.63977524    -0.85900
O136        O  0.50008869  0.85998171  0.58121103    -0.87000
O137        O  0.50133000  0.14166742  0.57972063    -0.86200
O138        O  0.35855816  0.91951276  0.50046627    -0.86500
O139        O  0.64019812  0.91832021  0.49788535    -0.86300
O140        O  0.64103703  0.07962814  0.50093745    -0.85900
O141        O  0.35953880  0.08162029  0.49949312    -0.86300
O142        O  0.42004434  0.99981071  0.64119619    -0.86600
O143        O  0.58146458  0.00069480  0.63994409    -0.88000
Zr144      Zr  0.39950825  0.00036693  0.50023976     2.83100
Zr145      Zr  0.59980972  0.99925931  0.49905249     2.83500
Zr146      Zr  0.49937337  0.89994622  0.50019093     2.84100
Zr147      Zr  0.50049145  0.09989444  0.49947023     2.83400
Zr148      Zr  0.50036170  0.00028173  0.59980945     2.84200
O149        O  0.55060473  0.04989226  0.54947380    -1.08500
O150        O  0.44961236  0.95023056  0.55037603    -1.08000
C151        C  0.37433774  0.99938640  0.62697199     1.06600
C152        C  0.62694536  0.99977725  0.62500095     1.09200
C153        C  0.37327922  0.87388975  0.50120080     1.06800
C154        C  0.37455701  0.12713341  0.49901127     1.07200
C155        C  0.62682583  0.12536936  0.50160197     1.06700
C156        C  0.62526846  0.87280215  0.49758905     1.06300
C157        C  0.49951499  0.87447286  0.62686648     1.06700
C158        C  0.50152034  0.12692905  0.62531327     1.06200
H159        H  0.57082224  0.92882457  0.57057653     0.32900
O160        O  0.55014620  0.94956303  0.54998179    -1.29600
H161        H  0.42959043  0.07142659  0.57077103     0.32900
O162        O  0.45001618  0.05055893  0.55005508    -1.31000
O163        O  0.41937933  0.35879307  0.00054195    -0.86500
O164        O  0.41839296  0.64044985  0.99955405    -0.86600
O165        O  0.35901706  0.49797000  0.08034005    -0.88300
O166        O  0.35895614  0.50061452  0.91887641    -0.87000
O167        O  0.41933599  0.50037215  0.85886411    -0.86600
O168        O  0.41903031  0.49829927  0.14075959    -0.88000
O169        O  0.35858460  0.57988512  0.99922784    -0.86500
O170        O  0.35890141  0.41867350  0.99985939    -0.86100
Zr171      Zr  0.39963824  0.49945101  0.99969863     2.84300
O172        O  0.44926841  0.54990188  0.94962391    -1.08000
O173        O  0.44965461  0.44962781  0.05005186    -1.08800
C174        C  0.37373674  0.37312135  0.00032303     1.06700
C175        C  0.37289372  0.62559000  0.99921386     1.06600
C176        C  0.37346467  0.49763329  0.12601473     1.09600
C177        C  0.37373216  0.50076627  0.87329415     1.07400
H178        H  0.42850311  0.57038638  0.07093874     0.32900
O179        O  0.44921946  0.54981569  0.05022559    -1.29000
H180        H  0.42888209  0.42867769  0.92858279     0.32600
O181        O  0.44942523  0.44940380  0.94930902    -1.30700
O182        O  0.57976711  0.64068907  0.00012668    -0.86500
O183        O  0.57985312  0.35880938  0.99928325    -0.87900
O184        O  0.50021632  0.58052910  0.14029029    -0.86500
O185        O  0.49913071  0.58052403  0.85854536    -0.86600
O186        O  0.50129070  0.41922636  0.85944753    -0.86300
O187        O  0.50004356  0.41928517  0.14126034    -0.86100
O188        O  0.64066864  0.50130951  0.07988362    -0.86500
O189        O  0.64033226  0.49938915  0.91853761    -0.85900
O190        O  0.58088852  0.50076447  0.14051823    -0.87000
O191        O  0.57988275  0.50086570  0.85861801    -0.86200
O192        O  0.50025124  0.64112687  0.08042184    -0.86500
O193        O  0.49820673  0.35952329  0.08058794    -0.86300
O194        O  0.50058483  0.35859934  0.91928034    -0.85900
O195        O  0.49735082  0.64033484  0.91916757    -0.86300
O196        O  0.64025729  0.58074931  0.00035439    -0.86600
O197        O  0.64028790  0.41875838  0.99916795    -0.88000
Zr198      Zr  0.49919453  0.59983460  0.99991648     2.83100
Zr199      Zr  0.49967973  0.39989514  0.99977008     2.83500
Zr200      Zr  0.49987719  0.49973643  0.09997071     2.84100
Zr201      Zr  0.49967089  0.50000288  0.89979900     2.83400
Zr202      Zr  0.59971887  0.49984367  0.99945337     2.84200
O203        O  0.54983574  0.44963503  0.94942837    -1.08500
O204        O  0.54966313  0.54987934  0.04972148    -1.08000
C205        C  0.62543126  0.62631946  0.00051574     1.06600
C206        C  0.62546626  0.37316160  0.99908483     1.09200
C207        C  0.50043854  0.62622812  0.12596780     1.06800
C208        C  0.49790960  0.62604084  0.87345070     1.07200
C209        C  0.50129462  0.37351665  0.87374745     1.06700
C210        C  0.49883698  0.37378835  0.12631201     1.06300
C211        C  0.62640396  0.50136384  0.12560448     1.06700
C212        C  0.62550480  0.50028776  0.87297167     1.06200
H213        H  0.57081380  0.42890218  0.07065879     0.32900
O214        O  0.55012489  0.44956468  0.05000848    -1.29600
H215        H  0.57023566  0.57113763  0.92889108     0.32900
O216        O  0.54972666  0.55033100  0.94956582    -1.31000
C217        C  0.49356287  0.20074999  0.26391225     0.20400
C218        C  0.48768796  0.21162214  0.21338069    -0.39500
C219        C  0.49284735  0.26172265  0.20042590     0.19300
C220        C  0.50290555  0.29823060  0.23511172     0.22000
C221        C  0.50877220  0.28736282  0.28561945    -0.40000
C222        C  0.50362766  0.23728547  0.29856435     0.20800
N223        N  0.49066980  0.15603857  0.28575190    -0.33300
C224        C  0.49876427  0.16431277  0.33468984    -0.10800
C225        C  0.50694985  0.21451551  0.34406438    -0.29700
N226        N  0.50606196  0.34291918  0.21331059    -0.46200
C227        C  0.49818287  0.33471377  0.16433852    -0.05500
C228        C  0.48981197  0.28454008  0.15489495    -0.22900
H229        H  0.47981505  0.18319415  0.18615758     0.18900
H230        H  0.51674478  0.31577700  0.31282856     0.17700
H231        H  0.51451445  0.23195298  0.37942439     0.14000
H232        H  0.48246454  0.26714458  0.11946876     0.13900
H233        H  0.48343449  0.12211767  0.26849280     0.32000
H234        H  0.51348347  0.37677912  0.23061155     0.34800
C235        C  0.49878655  0.76358921  0.29926953     0.20400
C236        C  0.49746549  0.71266377  0.28882169    -0.39500
C237        C  0.49916955  0.70002599  0.23840458     0.19300
C238        C  0.50195116  0.73533637  0.20121928     0.22000
C239        C  0.50328198  0.78624905  0.21166617    -0.40000
C240        C  0.50156324  0.79888505  0.26207117     0.20800
N241        N  0.49764757  0.78526219  0.34414002    -0.37300
C242        C  0.49966481  0.83472815  0.33534809    -0.10800
C243        C  0.50211360  0.84461170  0.28461605    -0.29700
N244        N  0.50286386  0.71370860  0.15633301    -0.46200
C245        C  0.50067534  0.66424872  0.16507451    -0.05500
C246        C  0.49837855  0.65431443  0.21581043    -0.22900
H247        H  0.49524070  0.68494199  0.31777094     0.18900
H248        H  0.50541637  0.81397311  0.18271217     0.17700
H249        H  0.50411520  0.88046235  0.26666752     0.14000
H250        H  0.49620714  0.61845458  0.23372017     0.13900
H251        H  0.49559014  0.76751679  0.37852342     0.32000
H252        H  0.50478617  0.73148949  0.12195982     0.34800
C253        C  0.49394472  0.79909509  0.73577942     0.20400
C254        C  0.48744461  0.78820985  0.78623140    -0.39500
C255        C  0.49242007  0.73810221  0.79923527     0.19300
C256        C  0.50291686  0.70160500  0.76466785     0.22000
C257        C  0.50942691  0.71249006  0.71423723    -0.40000
C258        C  0.50442131  0.76257175  0.70123492     0.20800
N259        N  0.49114111  0.84378938  0.71389894    -0.33300
C260        C  0.49963169  0.83551817  0.66502937    -0.10800
C261        C  0.50807053  0.78533653  0.65574631    -0.29700
N262        N  0.50580865  0.65691012  0.78650067    -0.46200
C263        C  0.49732646  0.66509464  0.83537821    -0.05500
C264        C  0.48882569  0.71527004  0.84472422    -0.22900
H265        H  0.47920763  0.81663006  0.81335617     0.18900
H266        H  0.51770700  0.68407697  0.68711779     0.17700
H267        H  0.51587523  0.76789585  0.62043981     0.14000
H268        H  0.48112168  0.73267029  0.88007208     0.13900
H269        H  0.48353561  0.87767988  0.73106115     0.32000
H270        H  0.51354153  0.62306824  0.76929845     0.34800
C271        C  0.50267861  0.23620483  0.70039815     0.20400
C272        C  0.50363509  0.28714350  0.71083828    -0.39500
C273        C  0.50291425  0.29975084  0.76128981     0.19300
C274        C  0.50136601  0.26439946  0.79850844     0.22000
C275        C  0.50041584  0.21347869  0.78807027    -0.40000
C276        C  0.50116436  0.20087434  0.73763596     0.20800
N277        N  0.50302609  0.21454733  0.65550456    -0.33300
C278        C  0.50178335  0.16505817  0.66432637    -0.10800
C279        C  0.50059179  0.15514817  0.71509605    -0.29700
N280        N  0.50077772  0.28600833  0.84340669    -0.46200
C281        C  0.50191908  0.33549948  0.83464486    -0.05500
C282        C  0.50329843  0.34547184  0.78388273    -0.22900
H283        H  0.50480631  0.31489798  0.68185832     0.18900
H284        H  0.49915430  0.18572738  0.81704953     0.17700
H285        H  0.49938624  0.11927798  0.73307612     0.14000
H286        H  0.50429523  0.38137023  0.76594604     0.13900
H287        H  0.50405891  0.23231773  0.62108778     0.32000
H288        H  0.49949648  0.26819906  0.87779544     0.34800
C289        C  0.79881680  0.26431771  0.50432072     0.20400
C290        C  0.78893530  0.21324710  0.50504924    -0.39500
C291        C  0.73868910  0.20007227  0.50494939     0.19300
C292        C  0.70117469  0.23507548  0.50436042     0.22000
C293        C  0.71105428  0.28614623  0.50384159    -0.40000
C294        C  0.76129661  0.29931508  0.50375919     0.20800
N295        N  0.84342074  0.28637374  0.50329118    -0.33300
C296        C  0.83423211  0.33579138  0.50200895    -0.10800
C297        C  0.78341247  0.34529368  0.50236096    -0.29700
N298        N  0.65658002  0.21300589  0.50340941    -0.46200
C299        C  0.66575514  0.16356779  0.50325106    -0.05500
C300        C  0.71656677  0.15406873  0.50435417    -0.22900
H301        H  0.81819470  0.18580351  0.50515063     0.18900
H302        H  0.68179856  0.31358296  0.50303814     0.17700
H303        H  0.76513878  0.38101328  0.50140568     0.14000
H304        H  0.73483623  0.11833519  0.50422844     0.13900
H305        H  0.87794105  0.26886779  0.50326380     0.32000
H306        H  0.62207555  0.23051867  0.50246893     0.34800
C307        C  0.76431395  0.70086540  0.49363247     0.20400
C308        C  0.71332075  0.71071309  0.49189677    -0.39500
C309        C  0.70005648  0.76096637  0.49347559     0.19300
C310        C  0.73491609  0.79851181  0.49632022     0.22000
C311        C  0.78590209  0.78867229  0.49791396    -0.40000
C312        C  0.79915235  0.73842562  0.49653796     0.20800
N313        N  0.78640877  0.65623002  0.49377129    -0.33300
C314        C  0.83567613  0.66545226  0.49690983    -0.10800
C315        C  0.84505952  0.71631667  0.49854979    -0.29700
N316        N  0.71278776  0.84308725  0.49796281    -0.46200
C317        C  0.66345272  0.83387144  0.49628806    -0.05500
C318        C  0.65407081  0.78305228  0.49342246    -0.22900
H319        H  0.68599153  0.68141177  0.48996933     0.18900
H320        H  0.81320620  0.81794610  0.50051223     0.17700
H321        H  0.88063827  0.73460963  0.50132646     0.14000
H322        H  0.61842406  0.76475859  0.49176140     0.13900
H323        H  0.76901288  0.62166319  0.49219118     0.32000
H324        H  0.73018784  0.87760096  0.50042417     0.34800
C325        C  0.23555452  0.29925481  0.49984010     0.20400
C326        C  0.28659396  0.28945646  0.50072240    -0.39500
C327        C  0.29986742  0.23917136  0.49999575     0.19300
C328        C  0.26497611  0.20157381  0.49864812     0.22000
C329        C  0.21396387  0.21137183  0.49783436    -0.40000
C330        C  0.20069892  0.26162956  0.49843552     0.20800
N331        N  0.21338193  0.34386074  0.49996907    -0.33300
C332        C  0.16404025  0.33454956  0.49860257    -0.10800
C333        C  0.15470894  0.28365852  0.49765580    -0.29700
N334        N  0.28707080  0.15695362  0.49806785    -0.46200
C335        C  0.33642427  0.16616209  0.49898153    -0.05500
C336        C  0.34585270  0.21705204  0.50020023    -0.22900
H337        H  0.31393081  0.31879718  0.50172925     0.18900
H338        H  0.18662925  0.18203555  0.49666836     0.17700
H339        H  0.11908379  0.26528177  0.49653528     0.14000
H340        H  0.38151982  0.23535741  0.50114907     0.13900
H341        H  0.23075745  0.37846084  0.50092407     0.32000
H342        H  0.26962265  0.12239192  0.49705628     0.34800
C343        C  0.23496604  0.70135551  0.50178682     0.20400
C344        C  0.28588114  0.71148233  0.50367917    -0.39500
C345        C  0.29887880  0.76179188  0.50197168     0.19300
C346        C  0.26388751  0.79916957  0.49850816     0.22000
C347        C  0.21296098  0.78903761  0.49647316    -0.40000
C348        C  0.19995089  0.73871788  0.49837069     0.20800
N349        N  0.21306359  0.65664894  0.50337277    -0.33300
C350        C  0.16371095  0.66561042  0.50112125    -0.10800
C351        C  0.15410724  0.71638461  0.49789953    -0.29700
N352        N  0.28579814  0.84390813  0.49792133    -0.46200
C353        C  0.33511028  0.83491790  0.50103904    -0.05500
C354        C  0.34468187  0.78411424  0.50356517    -0.22900
H355        H  0.31332909  0.68236417  0.50655517     0.18900
H356        H  0.18549776  0.81817333  0.49393424     0.17700
H357        H  0.11839466  0.73448981  0.49558556     0.14000
H358        H  0.38035020  0.76598272  0.50631216     0.13900
H359        H  0.23060789  0.62222193  0.50604863     0.32000
H360        H  0.26828636  0.87837303  0.49553273     0.34800
C361        C  0.79909712  0.50355930  0.26388499     0.20400
C362        C  0.78878463  0.50708667  0.21299446    -0.39500
C363        C  0.73855051  0.50435232  0.19996548     0.19300
C364        C  0.70143328  0.49857314  0.23492188     0.22000
C365        C  0.71175131  0.49493414  0.28578760    -0.40000
C366        C  0.76196444  0.49774011  0.29881707     0.20800
N367        N  0.84375206  0.50544600  0.28585532    -0.33300
C368        C  0.83494690  0.50097494  0.33516687    -0.10800
C369        C  0.78435732  0.49601623  0.34464797    -0.29700
N370        N  0.65673749  0.49711780  0.21303385    -0.46200
C371        C  0.66546022  0.50183844  0.16373733    -0.05500
C372        C  0.71607324  0.50644601  0.15416839    -0.22900
H373        H  0.81771088  0.51170701  0.18558585     0.18900
H374        H  0.68281641  0.49042285  0.31320593     0.17700
H375        H  0.76639587  0.49180557  0.38029561     0.14000
H376        H  0.73398402  0.51069288  0.11850029     0.13900
H377        H  0.87802498  0.50977795  0.26840344     0.32000
H378        H  0.62247865  0.49286353  0.23053431     0.34800
C379        C  0.20144393  0.49596092  0.26504702     0.20400
C380        C  0.21138671  0.49502334  0.21398521    -0.39500
C381        C  0.26164308  0.49523683  0.20084394     0.19300
C382        C  0.29914013  0.49618330  0.23585777     0.22000
C383        C  0.28919790  0.49697738  0.28693911    -0.40000
C384        C  0.23892366  0.49686716  0.30008236     0.20800
N385        N  0.15679852  0.49671934  0.28704868    -0.33300
C386        C  0.16588859  0.49813334  0.33648413    -0.10800
C387        C  0.21671451  0.49818137  0.34604805    -0.29700
N388        N  0.34376131  0.49690671  0.21377878    -0.46200
C389        C  0.33459711  0.49651060  0.16432812    -0.05500
C390        C  0.28378070  0.49537914  0.15484499    -0.22900
H391        H  0.18215450  0.49456220  0.18651418     0.18900
H392        H  0.31842609  0.49798441  0.31440000     0.17700
H393        H  0.23492952  0.49929257  0.38179808     0.14000
H394        H  0.26551221  0.49507767  0.11910610     0.13900
H395        H  0.12230462  0.49643064  0.26949371     0.32000
H396        H  0.37826800  0.49795604  0.23127879     0.34800
C397        C  0.23472438  0.49996322  0.70146364     0.20400
C398        C  0.28572106  0.49910974  0.71127034    -0.39500
C399        C  0.29894814  0.50041001  0.76152080     0.19300
C400        C  0.26407404  0.50244347  0.79911801     0.22000
C401        C  0.21306291  0.50333397  0.78930781    -0.40000
C402        C  0.19982792  0.50195561  0.73904340     0.20800
N403        N  0.21263896  0.49881727  0.65685866    -0.33300
C404        C  0.16330355  0.50000050  0.66609827    -0.10800
C405        C  0.15386074  0.50197815  0.71695220    -0.29700
N406        N  0.28619229  0.50298058  0.84373317    -0.46200
C407        C  0.33550935  0.50125484  0.83444316    -0.05500
C408        C  0.34490227  0.49968045  0.78357623    -0.22900
H409        H  0.31306213  0.49740235  0.68195773     0.18900
H410        H  0.18571763  0.50480174  0.81862880     0.17700
H411        H  0.11819587  0.50327895  0.73524871     0.14000
H412        H  0.38053280  0.49796715  0.76524606     0.13900
H413        H  0.23006997  0.49721484  0.62230225     0.32000
H414        H  0.26879952  0.50429143  0.87832090     0.34800
C415        C  0.76429324  0.50373786  0.70087752     0.20400
C416        C  0.71379657  0.51023679  0.71127526    -0.39500
C417        C  0.70040498  0.50584593  0.76133721     0.19300
C418        C  0.73471709  0.49605642  0.79823189     0.22000
C419        C  0.78521793  0.48969309  0.78785093    -0.40000
C420        C  0.79857884  0.49391046  0.73778343     0.20800
N421        N  0.78641099  0.50580077  0.65629053    -0.33300
C422        C  0.83516823  0.49743207  0.66492912    -0.10800
C423        C  0.84417246  0.48983585  0.71532628    -0.29700
N424        N  0.71253534  0.49322093  0.84273085    -0.46200
C425        C  0.66368740  0.50094074  0.83406665    -0.05500
C426        C  0.65469344  0.50904706  0.78373651    -0.22900
H427        H  0.68689378  0.51783516  0.68249467     0.18900
H428        H  0.81208550  0.48185765  0.81660095     0.17700
H429        H  0.87935315  0.48244737  0.73311397     0.14000
H430        H  0.61944771  0.51612892  0.76595255     0.13900
H431        H  0.76945399  0.51290745  0.62219357     0.32000
H432        H  0.72950518  0.48591487  0.87677935     0.34800
C433        C  0.76470629  0.79817251  0.00139310     0.20400
C434        C  0.71368807  0.78838276  0.00032552    -0.39500
C435        C  0.70039475  0.73812706  0.00109747     0.19300
C436        C  0.73523444  0.70049715  0.00287620     0.22000
C437        C  0.78627565  0.71028702  0.00402909    -0.40000
C438        C  0.79957672  0.76056690  0.00314878     0.20800
N439        N  0.78683172  0.84277577  0.00045198    -0.33300
C440        C  0.83618696  0.83355071  0.00150554    -0.10800
C441        C  0.84557889  0.78266491  0.00326062    -0.29700
N442        N  0.71305514  0.65589359  0.00291344    -0.46200
C443        C  0.66372037  0.66519988  0.00114083    -0.05500
C444        C  0.65440161  0.71609573  0.00000818    -0.22900
H445        H  0.68637049  0.81772287  0.99877035     0.18900
H446        H  0.81360065  0.68093742  0.00525611     0.17700
H447        H  0.88123875  0.76434183  0.00429096     0.14000
H448        H  0.61878821  0.73447059  0.99843519     0.13900
H449        H  0.76940482  0.87733365  0.99892763     0.32000
H450        H  0.73042628  0.62129124  0.00401041     0.34800
C451        C  0.76367628  0.20047630  0.99935993     0.20400
C452        C  0.71276003  0.21059895  0.99705400    -0.39500
C453        C  0.69976164  0.26094715  0.99811100     0.19300
C454        C  0.73477051  0.29833856  0.00116322     0.22000
C455        C  0.78566991  0.28821479  0.00348787    -0.40000
C456        C  0.79866367  0.23788351  0.00244290     0.20800
N457        N  0.78561180  0.15574699  0.99875104    -0.33300
C458        C  0.83494074  0.16478263  0.00134777    -0.10800
C459        C  0.84449100  0.21559107  0.00376729    -0.29700
N460        N  0.71289022  0.34308523  0.00164690    -0.46200
C461        C  0.66356087  0.33411842  0.99899962    -0.05500
C462        C  0.65394595  0.28330173  0.99671706    -0.22900
H463        H  0.68530920  0.18144949  0.99461854     0.18900
H464        H  0.81312395  0.31736410  0.00588443     0.17700
H465        H  0.88017506  0.23375447  0.00599483     0.14000
H466        H  0.61824102  0.26518288  0.99445902     0.13900
H467        H  0.76811907  0.12127161  0.99643054     0.32000
H468        H  0.73042916  0.37754205  0.00389022     0.34800
C469        C  0.20109533  0.76475226  0.99664862     0.20400
C470        C  0.21093214  0.71367485  0.99622754    -0.39500
C471        C  0.26114126  0.70044336  0.99747094     0.19300
C472        C  0.29866890  0.73539433  0.99901839     0.22000
C473        C  0.28883047  0.78647752  0.99947042    -0.40000
C474        C  0.23861543  0.79971162  0.99819893     0.20800
N475        N  0.15651522  0.78685670  0.99593838    -0.33300
C476        C  0.16570467  0.83627138  0.99706949    -0.10800
C477        C  0.21651326  0.84572945  0.99843686    -0.29700
N478        N  0.34324123  0.71326784  0.99988851    -0.46200
C479        C  0.33402064  0.66385297  0.99888986    -0.05500
C480        C  0.28321543  0.65442064  0.99740816    -0.22900
H481        H  0.18166455  0.68627154  0.99505264     0.18900
H482        H  0.31809569  0.81387907  0.00073773     0.17700
H483        H  0.23477499  0.88144009  0.99972897     0.14000
H484        H  0.26493152  0.61871421  0.99632426     0.13900
H485        H  0.12199714  0.76938055  0.99496383     0.32000
H486        H  0.37776440  0.73072183  0.00105526     0.34800
C487        C  0.23478013  0.20115398  0.00157148     0.20400
C488        C  0.28578510  0.21098698  0.00262479    -0.39500
C489        C  0.29901010  0.26124691  0.00132201     0.19300
C490        C  0.26412277  0.29881397  0.99905426     0.22000
C491        C  0.21312047  0.28897540  0.99791677    -0.40000
C492        C  0.19988976  0.23872025  0.99935289     0.20800
N493        N  0.21267630  0.15654972  0.00262114    -0.33300
C494        C  0.16333527  0.16578660  0.00114273    -0.10800
C495        C  0.15392171  0.21663391  0.99909103    -0.29700
N496        N  0.28621341  0.34343650  0.99844901    -0.46200
C497        C  0.33554018  0.33420932  0.00034548    -0.05500
C498        C  0.34495870  0.28335070  0.00213342    -0.22900
H499        H  0.31313249  0.18168975  0.00446224     0.18900
H500        H  0.18576972  0.31827666  0.99621382     0.17700
H501        H  0.11826961  0.23493272  0.99750178     0.14000
H502        H  0.38060475  0.26505466  0.00389756     0.13900
H503        H  0.23009867  0.12199453  0.00426316     0.32000
H504        H  0.26879288  0.37799473  0.99685999     0.34800
C505        C  0.79863197  0.99804198  0.76426006     0.20400
C506        C  0.78876594  0.99473409  0.71328220    -0.39500
C507        C  0.73861749  0.99690407  0.69992995     0.19300
C508        C  0.70119538  0.00181955  0.73469765     0.22000
C509        C  0.71105502  0.00501266  0.78566492    -0.40000
C510        C  0.76118917  0.00293072  0.79900683     0.20800
N511        N  0.84315410  0.99709756  0.78646868    -0.33300
C512        C  0.83396210  0.00127636  0.83572972    -0.10800
C513        C  0.78324615  0.00499839  0.84498305    -0.29700
N514        N  0.65669208  0.00329728  0.71250898    -0.46200
C515        C  0.66583148  0.99945359  0.66322364    -0.05500
C516        C  0.71652595  0.99533353  0.65392983    -0.22900
H517        H  0.81796790  0.99094708  0.68603712     0.18900
H518        H  0.68186307  0.00894783  0.81289943     0.17700
H519        H  0.76500483  0.00866767  0.88054727     0.14000
H520        H  0.73472939  0.99179382  0.61833252     0.13900
H521        H  0.87760788  0.99355457  0.76919156     0.32000
H522        H  0.62227389  0.00697763  0.72982768     0.34800
C523        C  0.23490734  0.99801750  0.79888639     0.20400
C524        C  0.28597376  0.99788415  0.78917491    -0.39500
C525        C  0.29934765  0.99794625  0.73890324     0.19300
C526        C  0.26452020  0.99802381  0.70121776     0.22000
C527        C  0.21345463  0.99805642  0.71092730    -0.40000
C528        C  0.20008351  0.99811300  0.76119710     0.20800
N529        N  0.21269412  0.99849790  0.84347630    -0.33300
C530        C  0.16333942  0.99897865  0.83414725    -0.10800
C531        C  0.15404037  0.99869160  0.78320825    -0.29700
N532        N  0.28673079  0.99845628  0.65662958    -0.46200
C533        C  0.33609038  0.99870115  0.66594639    -0.05500
C534        C  0.34539580  0.99834416  0.71688442    -0.22900
H535        H  0.31326610  0.99797604  0.81858239     0.18900
H536        H  0.18616166  0.99827750  0.68152030     0.17700
H537        H  0.11841419  0.99903947  0.76479324     0.14000
H538        H  0.38102595  0.99852523  0.73529315     0.13900
H539        H  0.23006743  0.99865607  0.87809845     0.32000
H540        H  0.26934983  0.99872799  0.62201186     0.34800
C541        C  0.26350814  0.00456105  0.29920951     0.20400
C542        C  0.21254206  0.00590144  0.28912100    -0.39500
C543        C  0.19952968  0.00467879  0.23876495     0.19300
C544        C  0.23457632  0.00249483  0.20133864     0.22000
C545        C  0.28552034  0.00127738  0.21142251    -0.40000
C546        C  0.29852235  0.00234536  0.26175777     0.20800
N547        N  0.28544455  0.00459337  0.34395746    -0.33300
C548        C  0.33479527  0.00236341  0.33489151    -0.10800
C549        C  0.34435778  0.00098433  0.28403530    -0.29700
N550        N  0.21267901  0.00117201  0.15661262    -0.46200
C551        C  0.16329783  0.00237397  0.16561413    -0.05500
C552        C  0.15366646  0.00463926  0.21644323    -0.22900
H553        H  0.18505652  0.00740708  0.31830841     0.18900
H554        H  0.31299142  0.99930548  0.18224944     0.17700
H555        H  0.38004170  0.99898161  0.26583916     0.14000
H556        H  0.11792497  0.00586402  0.23459500     0.13900
H557        H  0.26791867  0.00588157  0.37847748     0.32000
H558        H  0.23025072  0.99924368  0.12214551     0.34800
C559        C  0.73418081  0.00077705  0.29799856     0.20400
C560        C  0.78498121  0.00487857  0.28803148    -0.39500
C561        C  0.79835101  0.00164599  0.23791718     0.19300
C562        C  0.76376737  0.99502544  0.20057770     0.22000
C563        C  0.71293800  0.99097119  0.21054169    -0.40000
C564        C  0.69957018  0.99412340  0.26068798     0.20800
N565        N  0.71204127  0.00259953  0.34254148    -0.33300
C566        C  0.66294670  0.99722894  0.33353168    -0.10800
C567        C  0.65371141  0.99181557  0.28289107    -0.29700
N568        N  0.78599474  0.99306299  0.15606391    -0.46200
C569        C  0.83510237  0.99825494  0.16518625    -0.05500
C570        C  0.84424067  0.00375092  0.21581773    -0.22900
H571        H  0.81209101  0.01008462  0.31714677     0.18900
H572        H  0.68583200  0.98573072  0.18142906     0.17700
H573        H  0.61825108  0.98692811  0.26480337     0.14000
H574        H  0.87966653  0.00866018  0.23396719     0.13900
H575        H  0.72925711  0.00752373  0.37689252     0.32000
H576        H  0.76883605  0.98822672  0.12167207     0.34800
C577        C  0.99224341  0.26295117  0.70028768     0.20400
C578        C  0.98727141  0.21242459  0.71157983    -0.39500
C579        C  0.99078695  0.20020808  0.76203972     0.19300
C580        C  0.99851661  0.23552568  0.79851520     0.22000
C581        C  0.00342967  0.28601991  0.78723209    -0.40000
C582        C  0.99993418  0.29822317  0.73681072     0.20800
N583        N  0.99069403  0.28421868  0.65518389    -0.33300
C584        C  0.99730427  0.33340784  0.66324017    -0.10800
C585        C  0.00315143  0.34347601  0.71365525    -0.29700
N586        N  0.00099518  0.21427097  0.84354863    -0.46200
C587        C  0.99502525  0.16500715  0.83558239    -0.05500
C588        C  0.98846663  0.15487214  0.78524295    -0.22900
H589        H  0.98137161  0.18465497  0.68320055     0.18900
H590        H  0.00968279  0.31374887  0.81557563     0.17700
H591        H  0.00911413  0.37917622  0.73101462     0.14000
H592        H  0.98309644  0.11905468  0.76793281     0.13900
H593        H  0.98528935  0.26644845  0.62118142     0.32000
H594        H  0.00700232  0.23207916  0.87743038     0.34800
C595        C  0.00381832  0.76456406  0.79914108     0.20400
C596        C  0.00578094  0.71335331  0.79013452    -0.39500
C597        C  0.00428680  0.69927257  0.74010791     0.19300
C598        C  0.00119911  0.73364810  0.70208988     0.22000
C599        C  0.99927873  0.78482752  0.71109391    -0.40000
C600        C  0.00069743  0.79889678  0.76109044     0.20800
N601        N  0.00429778  0.78736976  0.84337215    -0.33300
C602        C  0.00148970  0.83657630  0.83345345    -0.10800
C603        C  0.99921217  0.84525963  0.78248400    -0.29700
N604        N  0.99996388  0.71090959  0.65786716    -0.46200
C605        C  0.00213544  0.66167069  0.66768758    -0.05500
C606        C  0.00492917  0.65288851  0.71863632    -0.22900
H607        H  0.00807644  0.68649005  0.81987740     0.18900
H608        H  0.99669042  0.81167782  0.68136344     0.17700
H609        H  0.99664365  0.88063653  0.76368190     0.14000
H610        H  0.00696258  0.61744265  0.73737409     0.13900
H611        H  0.00636137  0.77045722  0.87817184     0.32000
H612        H  0.99748180  0.72789331  0.62312892     0.34800
C613        C  0.00315850  0.70225919  0.26634025     0.20400
C614        C  0.00704262  0.71139870  0.21527965    -0.39500
C615        C  0.00289933  0.76117929  0.20098350     0.19300
C616        C  0.99556400  0.79892378  0.23500565     0.22000
C617        C  0.99167347  0.78978247  0.28610187    -0.40000
C618        C  0.99582397  0.73996546  0.30040856     0.20800
N619        N  0.00558186  0.65814107  0.28919693    -0.33300
C620        C  0.99982795  0.66770152  0.33820831    -0.10800
C621        C  0.99372802  0.71840417  0.34673118    -0.29700
N622        N  0.99322857  0.84302439  0.21204687    -0.46200
C623        C  0.99904671  0.83332481  0.16304899    -0.05500
C624        C  0.00509232  0.78262182  0.15465492    -0.22900
H625        H  0.01284347  0.68191130  0.18866747     0.18900
H626        H  0.98590240  0.81927397  0.31271599     0.17700
H627        H  0.98818236  0.73688705  0.38193755     0.14000
H628        H  0.01070045  0.76405014  0.11950552     0.13900
H629        H  0.01084345  0.62361553  0.27242742     0.32000
H630        H  0.98802903  0.87760412  0.22872339     0.34800
C631        C  0.00373791  0.23490754  0.20078538     0.20400
C632        C  0.00749339  0.28600246  0.20996472    -0.39500
C633        C  0.00442549  0.30017595  0.25991247     0.19300
C634        C  0.99815791  0.26599480  0.29770646     0.22000
C635        C  0.99436773  0.21493221  0.28852427    -0.40000
C636        C  0.99747647  0.20076302  0.23861147     0.20800
N637        N  0.00545597  0.21204497  0.15659416    -0.33300
C638        C  0.00038408  0.16297247  0.16630756    -0.10800
C639        C  0.99532778  0.15445147  0.21711406    -0.29700
N640        N  0.99637366  0.28877320  0.34191492    -0.46200
C641        C  0.00140856  0.33785732  0.33232243    -0.05500
C642        C  0.00651516  0.34647956  0.28151314    -0.22900
H643        H  0.01239972  0.31271465  0.18040459     0.18900
H644        H  0.98940740  0.18822319  0.31807808     0.17700
H645        H  0.99055049  0.11921194  0.23573880     0.14000
H646        H  0.01115438  0.38177068  0.26295203     0.13900
H647        H  0.00991246  0.22882266  0.12195494     0.32000
H648        H  0.99178440  0.27192251  0.37650120     0.34800
loop_ 
_geom_bond_atom_site_label_1 
_geom_bond_atom_site_label_2 
_geom_bond_distance 
_geom_bond_site_symmetry_2 
_ccdc_geom_bond_type 
O1          Zr37   2.438   1_545  S
O1           C12   1.292   1_655  A
O2          Zr36   2.430       .  S
O2           C13   1.290       .  A
O3           Zr9   2.436   1_455  S
O3           C14   1.292       .  A
O4           Zr9   2.432       .  S
O4           C15   1.291       .  A
O5          Zr39   2.445   1_545  S
O5           C15   1.293       .  A
O6          Zr38   2.439   1_554  S
O6           C14   1.292       .  A
O7           Zr9   2.445   1_556  S
O7           C13   1.293       .  A
O8           Zr9   2.439   1_455  S
O8           C12   1.292       .  A
Zr9          O10   2.340   1_554  S
Zr9          O11   2.338   1_655  S
Zr9          O19   2.343       .  S
Zr9          O17   2.340   1_654  S
O10         Zr36   2.338       .  S
O10         Zr39   2.340   1_546  S
O11         Zr37   2.340   1_445  S
O11         Zr38   2.339   1_554  S
C12         C638   1.471       .  S
C13         C587   1.471       .  S
C14         C494   1.471       .  S
C15         C458   1.472       .  S
H16          O17   0.966       .  S
O17         Zr36   2.343   1_455  S
O17         Zr38   2.343       .  S
H18          O19   0.966       .  S
O19         Zr37   2.339   1_545  S
O19         Zr39   2.341   1_545  S
O20         Zr36   2.436   1_565  S
O20          C43   1.292   1_655  A
O21         Zr37   2.438       .  S
O21          C44   1.292       .  A
O22         Zr38   2.443   1_565  S
O22          C45   1.293       .  A
O23         Zr39   2.435   1_546  S
O23          C46   1.292       .  A
O24         Zr39   2.438       .  S
O24          C47   1.292       .  A
O25         Zr38   2.445   1_554  S
O25          C48   1.293       .  A
O26         Zr40   2.441       .  S
O26          C49   1.292       .  A
O27         Zr40   2.437   1_654  S
O27          C50   1.292       .  A
O28         Zr38   2.436   1_565  S
O28          C49   1.292       .  A
O29         Zr39   2.443       .  S
O29          C50   1.293       .  A
O30         Zr36   2.438   1_455  S
O30          C45   1.292   1_545  A
O31         Zr37   2.432   1_445  S
O31          C48   1.291       .  A
O32         Zr37   2.436       .  S
O32          C47   1.292       .  A
O33         Zr36   2.441       .  S
O33          C46   1.292       .  A
O34         Zr40   2.437       .  S
O34          C43   1.291       .  A
O35         Zr40   2.437   1_554  S
O35          C44   1.292   1_455  A
Zr36         O42   2.338   1_645  S
Zr36         O54   2.339   1_545  S
Zr37         O41   2.337       .  S
Zr37         O52   2.342   1_655  S
Zr38         O42   2.341   1_545  S
Zr38         O52   2.343   1_546  S
Zr39         O41   2.340       .  S
Zr39         O54   2.344   1_554  S
Zr40         O41   2.341   1_456  S
Zr40         O42   2.337       .  S
Zr40         O54   2.343   1_455  S
Zr40         O52   2.342   1_556  S
C43         C602   1.470       .  S
C44         C623   1.471       .  S
C45         C530   1.473       .  S
C46         C512   1.471       .  S
C47         C569   1.470       .  S
C48         C551   1.472       .  S
C49         C476   1.472       .  S
C50         C440   1.473       .  S
H51          O52   0.966       .  S
H53          O54   0.966       .  S
O55         Zr91   2.437       .  S
O55          C66   1.292       .  A
O56         Zr90   2.430       .  S
O56          C67   1.291       .  A
O57         Zr63   2.438   1_455  S
O57          C68   1.292       .  A
O58         Zr63   2.442       .  S
O58          C69   1.292       .  A
O59         Zr93   2.436       .  S
O59          C69   1.292       .  A
O60         Zr92   2.442       .  S
O60          C68   1.292       .  A
O61         Zr63   2.445       .  S
O61          C67   1.293       .  A
O62         Zr63   2.440   1_455  S
O62          C66   1.292       .  A
Zr63         O64   2.338       .  S
Zr63         O65   2.341   1_655  S
Zr63         O73   2.342       .  S
Zr63         O71   2.344   1_655  S
O64         Zr90   2.337       .  S
O64         Zr93   2.338       .  S
O65         Zr91   2.340       .  S
O65         Zr92   2.342       .  S
C66         C641   1.472       .  S
C67         C584   1.471       .  S
C68         C332   1.472       .  S
C69         C296   1.472       .  S
H70          O71   0.966       .  S
O71         Zr90   2.339   1_455  S
O71         Zr92   2.342       .  S
H72          O73   0.966       .  S
O73         Zr91   2.345   1_655  S
O73         Zr93   2.344       .  S
O74         Zr90   2.435   1_455  S
O74          C97   1.291       .  A
O75         Zr91   2.439       .  S
O75          C98   1.292   1_455  A
O76         Zr92   2.439       .  S
O76          C99   1.292       .  A
O77         Zr93   2.442       .  S
O77         C100   1.292       .  A
O78         Zr93   2.434       .  S
O78         C101   1.292       .  A
O79         Zr92   2.434       .  S
O79         C102   1.291       .  A
O80         Zr94   2.432   1_455  S
O80         C103   1.291       .  A
O81         Zr94   2.435       .  S
O81         C104   1.291       .  A
O82         Zr92   2.446       .  S
O82         C103   1.293       .  A
O83         Zr93   2.440       .  S
O83         C104   1.292       .  A
O84         Zr90   2.434   1_455  S
O84          C99   1.291       .  A
O85         Zr91   2.445       .  S
O85         C102   1.293       .  A
O86         Zr91   2.446   1_655  S
O86         C101   1.293       .  A
O87         Zr90   2.434       .  S
O87         C100   1.291       .  A
O88         Zr94   2.438   1_455  S
O88          C97   1.292       .  A
O89         Zr94   2.436       .  S
O89          C98   1.292       .  A
Zr90         O96   2.337   1_655  S
Zr90        O108   2.341       .  S
Zr91         O95   2.340   1_455  S
Zr91        O106   2.341       .  S
Zr92         O96   2.338       .  S
Zr92        O106   2.342       .  S
Zr93         O95   2.339       .  S
Zr93        O108   2.341       .  S
Zr94         O95   2.338       .  S
Zr94         O96   2.339   1_655  S
Zr94        O108   2.340       .  S
Zr94        O106   2.342   1_655  S
C97         C605   1.470       .  S
C98         C620   1.471       .  S
C99         C404   1.471       .  S
C100        C422   1.471       .  S
C101        C368   1.473       .  S
C102        C386   1.473       .  S
C103        C350   1.472       .  S
C104        C314   1.472       .  S
H105        O106   0.966       .  S
H107        O108   0.966       .  S
O109       Zr145   2.439       .  S
O109        C120   1.292       .  A
O110       Zr144   2.444       .  S
O110        C121   1.293       .  A
O111       Zr117   2.435       .  S
O111        C122   1.291       .  A
O112       Zr117   2.440   1_545  S
O112        C123   1.292       .  A
O113       Zr147   2.435       .  S
O113        C123   1.291       .  A
O114       Zr146   2.440       .  S
O114        C122   1.292       .  A
O115       Zr117   2.434   1_545  S
O115        C121   1.291       .  A
O116       Zr117   2.435       .  S
O116        C120   1.291       .  A
Zr117       O118   2.338   1_565  S
Zr117       O119   2.338       .  S
Zr117       O127   2.342   1_565  S
Zr117       O125   2.340       .  S
O118       Zr144   2.341       .  S
O118       Zr147   2.341       .  S
O119       Zr145   2.338       .  S
O119       Zr146   2.337       .  S
C120        C566   1.470       .  S
C121        C548   1.472       .  S
C122        C242   1.471       .  S
C123        C224   1.470       .  S
H124        O125   0.966       .  S
O125       Zr144   2.342   1_565  S
O125       Zr146   2.342       .  S
H126        O127   0.966       .  S
O127       Zr145   2.342   1_545  S
O127       Zr147   2.342       .  S
O128       Zr144   2.442   1_565  S
O128        C151   1.293       .  A
O129       Zr145   2.435       .  S
O129        C152   1.291       .  A
O130       Zr146   2.433       .  S
O130        C153   1.291       .  A
O131       Zr147   2.437       .  S
O131        C154   1.292       .  A
O132       Zr147   2.441       .  S
O132        C155   1.292       .  A
O133       Zr146   2.437       .  S
O133        C156   1.292       .  A
O134       Zr148   2.439   1_565  S
O134        C157   1.292       .  A
O135       Zr148   2.435       .  S
O135        C158   1.292       .  A
O136       Zr146   2.436       .  S
O136        C157   1.292       .  A
O137       Zr147   2.439       .  S
O137        C158   1.292       .  A
O138       Zr144   2.445   1_565  S
O138        C153   1.293       .  A
O139       Zr145   2.440       .  S
O139        C156   1.292       .  A
O140       Zr145   2.437   1_545  S
O140        C155   1.292       .  A
O141       Zr144   2.442       .  S
O141        C154   1.293       .  A
O142       Zr148   2.439   1_565  S
O142        C151   1.292       .  A
O143       Zr148   2.442       .  S
O143        C152   1.293   1_545  A
Zr144       O150   2.342   1_545  S
Zr144       O162   2.344       .  S
Zr145       O149   2.340   1_565  S
Zr145       O160   2.341       .  S
Zr146       O150   2.340       .  S
Zr146       O160   2.339       .  S
Zr147       O149   2.338       .  S
Zr147       O162   2.343       .  S
Zr148       O149   2.339       .  S
Zr148       O150   2.340   1_545  S
Zr148       O162   2.342       .  S
Zr148       O160   2.341   1_545  S
C151        C533   1.473       .  S
C152        C515   1.471       .  S
C153        C353   1.472       .  S
C154        C335   1.472       .  S
C155        C299   1.472       .  S
C156        C317   1.472       .  S
C157        C260   1.470       .  S
C158        C278   1.471       .  S
H159        O160   0.966       .  S
H161        O162   0.966       .  S
O163       Zr199   2.435   1_554  S
O163        C174   1.291       .  A
O164       Zr198   2.441       .  S
O164        C175   1.292       .  A
O165       Zr171   2.435   1_554  S
O165        C176   1.292       .  A
O166       Zr171   2.440       .  S
O166        C177   1.292       .  A
O167       Zr201   2.434       .  S
O167        C177   1.291       .  A
O168       Zr200   2.444       .  S
O168        C176   1.293       .  A
O169       Zr171   2.436       .  S
O169        C175   1.292       .  A
O170       Zr171   2.440       .  S
O170        C174   1.292   1_556  A
Zr171       O172   2.339       .  S
Zr171       O173   2.339   1_556  S
Zr171       O181   2.340       .  S
Zr171       O179   2.344   1_556  S
O172       Zr198   2.339       .  S
O172       Zr201   2.338       .  S
O173       Zr199   2.337   1_554  S
O173       Zr200   2.340       .  S
C174        C497   1.471       .  S
C175        C479   1.472       .  S
C176        C389   1.473       .  S
C177        C407   1.470       .  S
H178        O179   0.966       .  S
O179       Zr198   2.341   1_554  S
O179       Zr200   2.344       .  S
H180        O181   0.966       .  S
O181       Zr199   2.340       .  S
O181       Zr201   2.342       .  S
O182       Zr198   2.439   1_554  S
O182        C205   1.292       .  A
O183       Zr199   2.432       .  S
O183        C206   1.291       .  A
O184       Zr200   2.435       .  S
O184        C207   1.291       .  A
O185       Zr201   2.440       .  S
O185        C208   1.292       .  A
O186       Zr201   2.435       .  S
O186        C209   1.291       .  A
O187       Zr200   2.438       .  S
O187        C210   1.292       .  A
O188       Zr202   2.434   1_554  S
O188        C211   1.291       .  A
O189       Zr202   2.442       .  S
O189        C212   1.292       .  A
O190       Zr200   2.445       .  S
O190        C211   1.293       .  A
O191       Zr201   2.434       .  S
O191        C212   1.291       .  A
O192       Zr198   2.440   1_554  S
O192        C207   1.292       .  A
O193       Zr199   2.436   1_554  S
O193        C210   1.292       .  A
O194       Zr199   2.439       .  S
O194        C209   1.292       .  A
O195       Zr198   2.436       .  S
O195        C208   1.292       .  A
O196       Zr202   2.441   1_554  S
O196        C205   1.292       .  A
O197       Zr202   2.445       .  S
O197        C206   1.293       .  A
Zr198       O204   2.340   1_556  S
Zr198       O216   2.342       .  S
Zr199       O203   2.340       .  S
Zr199       O214   2.342   1_556  S
Zr200       O204   2.339       .  S
Zr200       O214   2.342       .  S
Zr201       O203   2.339       .  S
Zr201       O216   2.339       .  S
Zr202       O203   2.338       .  S
Zr202       O204   2.342   1_556  S
Zr202       O216   2.342       .  S
Zr202       O214   2.343   1_556  S
C205        C443   1.473       .  S
C206        C461   1.472       .  S
C207        C245   1.471       .  S
C208        C263   1.471       .  S
C209        C281   1.471       .  S
C210        C227   1.470       .  S
C211        C371   1.473       .  S
C212        C425   1.471       .  S
H213        O214   0.966       .  S
H215        O216   0.966       .  S
C217        C222   1.385       .  A
C217        C218   1.403       .  A
C217        N223   1.344       .  A
C218        C219   1.402       .  A
C218        H229   1.082       .  S
C219        C228   1.376       .  A
C219        C220   1.385       .  A
C220        C221   1.402       .  A
C220        N226   1.343       .  A
C221        C222   1.402       .  A
C221        H230   1.082       .  S
C222        C225   1.375       .  A
N223        C224   1.356       .  A
N223        H233   1.045       .  S
C224        C225   1.395       .  A
C225        H231   1.082       .  S
N226        C227   1.356       .  A
N226        H234   1.045       .  S
C227        C228   1.395       .  A
C228        H232   1.082       .  S
C235        C240   1.385       .  A
C235        C236   1.402       .  A
C235        N241   1.344       .  A
C236        C237   1.402       .  A
C236        H247   1.082       .  S
C237        C246   1.375       .  A
C237        C238   1.385       .  A
C238        C239   1.402       .  A
C238        N244   1.344       .  A
C239        C240   1.402       .  A
C239        H248   1.082       .  S
C240        C243   1.375       .  A
N241        C242   1.356       .  A
N241        H251   1.045       .  S
C242        C243   1.395       .  A
C243        H249   1.082       .  S
N244        C245   1.356       .  A
N244        H252   1.045       .  S
C245        C246   1.395       .  A
C246        H250   1.082       .  S
C253        C258   1.385       .  A
C253        C254   1.403       .  A
C253        N259   1.344       .  A
C254        C255   1.402       .  A
C254        H265   1.082       .  S
C255        C264   1.376       .  A
C255        C256   1.385       .  A
C256        C257   1.402       .  A
C256        N262   1.344       .  A
C257        C258   1.402       .  A
C257        H266   1.082       .  S
C258        C261   1.375       .  A
N259        C260   1.356       .  A
N259        H269   1.045       .  S
C260        C261   1.395       .  A
C261        H267   1.082       .  S
N262        C263   1.356       .  A
N262        H270   1.045       .  S
C263        C264   1.395       .  A
C264        H268   1.082       .  S
C271        C276   1.385       .  A
C271        C272   1.402       .  A
C271        N277   1.344       .  A
C272        C273   1.402       .  A
C272        H283   1.082       .  S
C273        C282   1.375       .  A
C273        C274   1.385       .  A
C274        C275   1.402       .  A
C274        N280   1.344       .  A
C275        C276   1.402       .  A
C275        H284   1.082       .  S
C276        C279   1.375       .  A
N277        C278   1.356       .  A
N277        H287   1.045       .  S
C278        C279   1.395       .  A
C279        H285   1.082       .  S
N280        C281   1.356       .  A
N280        H288   1.045       .  S
C281        C282   1.395       .  A
C282        H286   1.082       .  S
C289        C294   1.384       .  A
C289        C290   1.403       .  A
C289        N295   1.343       .  A
C290        C291   1.402       .  A
C290        H301   1.082       .  S
C291        C300   1.377       .  A
C291        C292   1.384       .  A
C292        C293   1.403       .  A
C292        N298   1.343       .  A
C293        C294   1.402       .  A
C293        H302   1.082       .  S
C294        C297   1.377       .  A
N295        C296   1.356       .  A
N295        H305   1.045       .  S
C296        C297   1.396       .  A
C297        H303   1.082       .  S
N298        C299   1.356       .  A
N298        H306   1.045       .  S
C299        C300   1.396       .  A
C300        H304   1.082       .  S
C307        C312   1.385       .  A
C307        C308   1.403       .  A
C307        N313   1.343       .  A
C308        C309   1.402       .  A
C308        H319   1.082       .  S
C309        C318   1.377       .  A
C309        C310   1.385       .  A
C310        C311   1.403       .  A
C310        N316   1.343       .  A
C311        C312   1.402       .  A
C311        H320   1.082       .  S
C312        C315   1.376       .  A
N313        C314   1.356       .  A
N313        H323   1.045       .  S
C314        C315   1.396       .  A
C315        H321   1.082       .  S
N316        C317   1.356       .  A
N316        H324   1.045       .  S
C317        C318   1.396       .  A
C318        H322   1.082       .  S
C325        C330   1.384       .  A
C325        C326   1.403       .  A
C325        N331   1.344       .  A
C326        C327   1.403       .  A
C326        H337   1.082       .  S
C327        C336   1.377       .  A
C327        C328   1.385       .  A
C328        C329   1.403       .  A
C328        N334   1.343       .  A
C329        C330   1.402       .  A
C329        H338   1.082       .  S
C330        C333   1.377       .  A
N331        C332   1.356       .  A
N331        H341   1.045       .  S
C332        C333   1.396       .  A
C333        H339   1.082       .  S
N334        C335   1.356       .  A
N334        H342   1.045       .  S
C335        C336   1.396       .  A
C336        H340   1.082       .  S
C343        C348   1.385       .  A
C343        C344   1.402       .  A
C343        N349   1.344       .  A
C344        C345   1.402       .  A
C344        H355   1.082       .  S
C345        C354   1.376       .  A
C345        C346   1.385       .  A
C346        C347   1.403       .  A
C346        N352   1.344       .  A
C347        C348   1.403       .  A
C347        H356   1.082       .  S
C348        C351   1.377       .  A
N349        C350   1.356       .  A
N349        H359   1.045       .  S
C350        C351   1.396       .  A
C351        H357   1.083       .  S
N352        C353   1.356       .  A
N352        H360   1.045       .  S
C353        C354   1.396       .  A
C354        H358   1.082       .  S
C361        C366   1.384       .  A
C361        C362   1.403       .  A
C361        N367   1.344       .  A
C362        C363   1.403       .  A
C362        H373   1.082       .  S
C363        C372   1.377       .  A
C363        C364   1.385       .  A
C364        C365   1.403       .  A
C364        N370   1.344       .  A
C365        C366   1.403       .  A
C365        H374   1.082       .  S
C366        C369   1.376       .  A
N367        C368   1.356       .  A
N367        H377   1.045       .  S
C368        C369   1.396       .  A
C369        H375   1.083       .  S
N370        C371   1.356       .  A
N370        H378   1.045       .  S
C371        C372   1.396       .  A
C372        H376   1.082       .  S
C379        C384   1.384       .  A
C379        C380   1.403       .  A
C379        N385   1.344       .  A
C380        C381   1.402       .  A
C380        H391   1.082       .  S
C381        C390   1.377       .  A
C381        C382   1.384       .  A
C382        C383   1.403       .  A
C382        N388   1.344       .  A
C383        C384   1.403       .  A
C383        H392   1.082       .  S
C384        C387   1.377       .  A
N385        C386   1.356       .  A
N385        H395   1.045       .  S
C386        C387   1.396       .  A
C387        H393   1.082       .  S
N388        C389   1.356       .  A
N388        H396   1.045       .  S
C389        C390   1.396       .  A
C390        H394   1.082       .  S
C397        C402   1.385       .  A
C397        C398   1.402       .  A
C397        N403   1.343       .  A
C398        C399   1.402       .  A
C398        H409   1.082       .  S
C399        C408   1.376       .  A
C399        C400   1.385       .  A
C400        C401   1.403       .  A
C400        N406   1.343       .  A
C401        C402   1.402       .  A
C401        H410   1.082       .  S
C402        C405   1.377       .  A
N403        C404   1.355       .  A
N403        H413   1.045       .  S
C404        C405   1.396       .  A
C405        H411   1.082       .  S
N406        C407   1.356       .  A
N406        H414   1.045       .  S
C407        C408   1.395       .  A
C408        H412   1.082       .  S
C415        C420   1.385       .  A
C415        C416   1.403       .  A
C415        N421   1.343       .  A
C416        C417   1.402       .  A
C416        H427   1.082       .  S
C417        C426   1.377       .  A
C417        C418   1.385       .  A
C418        C419   1.402       .  A
C418        N424   1.343       .  A
C419        C420   1.402       .  A
C419        H428   1.082       .  S
C420        C423   1.376       .  A
N421        C422   1.356       .  A
N421        H431   1.045       .  S
C422        C423   1.395       .  A
C423        H429   1.082       .  S
N424        C425   1.355       .  A
N424        H432   1.045       .  S
C425        C426   1.396       .  A
C426        H430   1.083       .  S
C433        C438   1.384       .  A
C433        C434   1.403       .  A
C433        N439   1.343       .  A
C434        C435   1.402       .  A
C434        H445   1.082   1_554  S
C435        C444   1.377       .  A
C435        C436   1.384       .  A
C436        C437   1.403       .  A
C436        N442   1.344       .  A
C437        C438   1.403       .  A
C437        H446   1.082       .  S
C438        C441   1.378       .  A
N439        C440   1.356       .  A
N439        H449   1.045   1_554  S
C440        C441   1.396       .  A
C441        H447   1.082       .  S
N442        C443   1.356       .  A
N442        H450   1.045       .  S
C443        C444   1.396       .  A
C444        H448   1.082   1_554  S
C451        C456   1.385   1_556  A
C451        C452   1.403       .  A
C451        N457   1.344       .  A
C452        C453   1.403       .  A
C452        H463   1.082       .  S
C453        C462   1.376       .  A
C453        C454   1.385   1_556  A
C454        C455   1.402       .  A
C454        N460   1.343       .  A
C455        C456   1.402       .  A
C455        H464   1.082       .  S
C456        C459   1.376       .  A
N457        C458   1.356   1_556  A
N457        H467   1.045       .  S
C458        C459   1.396       .  A
C459        H465   1.082       .  S
N460        C461   1.356   1_554  A
N460        H468   1.045       .  S
C461        C462   1.396       .  A
C462        H466   1.083       .  S
C469        C474   1.385       .  A
C469        C470   1.403       .  A
C469        N475   1.343       .  A
C470        C471   1.402       .  A
C470        H481   1.082       .  S
C471        C480   1.377       .  A
C471        C472   1.384       .  A
C472        C473   1.403       .  A
C472        N478   1.343       .  A
C473        C474   1.402       .  A
C473        H482   1.082   1_556  S
C474        C477   1.377       .  A
N475        C476   1.356       .  A
N475        H485   1.045       .  S
C476        C477   1.396       .  A
C477        H483   1.082       .  S
N478        C479   1.356       .  A
N478        H486   1.045   1_556  S
C479        C480   1.396       .  A
C480        H484   1.082       .  S
C487        C492   1.385   1_554  A
C487        C488   1.403       .  A
C487        N493   1.343       .  A
C488        C489   1.402       .  A
C488        H499   1.082       .  S
C489        C498   1.377       .  A
C489        C490   1.385   1_554  A
C490        C491   1.403       .  A
C490        N496   1.343       .  A
C491        C492   1.402       .  A
C491        H500   1.082       .  S
C492        C495   1.377       .  A
N493        C494   1.356       .  A
N493        H503   1.045       .  S
C494        C495   1.396   1_554  A
C495        H501   1.082       .  S
N496        C497   1.356   1_556  A
N496        H504   1.045       .  S
C497        C498   1.396       .  A
C498        H502   1.082       .  S
C505        C510   1.385   1_565  A
C505        C506   1.403       .  A
C505        N511   1.343       .  A
C506        C507   1.402       .  A
C506        H517   1.082       .  S
C507        C516   1.377       .  A
C507        C508   1.385   1_565  A
C508        C509   1.402       .  A
C508        N514   1.343       .  A
C509        C510   1.402       .  A
C509        H518   1.082       .  S
C510        C513   1.376       .  A
N511        C512   1.356   1_565  A
N511        H521   1.045       .  S
C512        C513   1.395       .  A
C513        H519   1.082       .  S
N514        C515   1.355   1_545  A
N514        H522   1.045       .  S
C515        C516   1.396       .  A
C516        H520   1.082       .  S
C523        C528   1.384       .  A
C523        C524   1.403       .  A
C523        N529   1.344       .  A
C524        C525   1.403       .  A
C524        H535   1.082       .  S
C525        C534   1.378       .  A
C525        C526   1.384       .  A
C526        C527   1.403       .  A
C526        N532   1.343       .  A
C527        C528   1.403       .  A
C527        H536   1.082       .  S
C528        C531   1.378       .  A
N529        C530   1.356       .  A
N529        H539   1.045       .  S
C530        C531   1.396       .  A
C531        H537   1.082       .  S
N532        C533   1.356       .  A
N532        H540   1.045       .  S
C533        C534   1.396       .  A
C534        H538   1.082       .  S
C541        C546   1.385       .  A
C541        C542   1.403       .  A
C541        N547   1.344       .  A
C542        C543   1.403       .  A
C542        H553   1.082       .  S
C543        C552   1.377       .  A
C543        C544   1.385       .  A
C544        C545   1.402       .  A
C544        N550   1.343       .  A
C545        C546   1.402       .  A
C545        H554   1.082   1_545  S
C546        C549   1.376       .  A
N547        C548   1.356       .  A
N547        H557   1.045       .  S
C548        C549   1.396       .  A
C549        H555   1.082   1_545  S
N550        C551   1.356       .  A
N550        H558   1.045   1_545  S
C551        C552   1.396       .  A
C552        H556   1.082       .  S
C559        C564   1.385   1_545  A
C559        C560   1.402       .  A
C559        N565   1.342       .  A
C560        C561   1.401       .  A
C560        H571   1.082       .  S
C561        C570   1.376       .  A
C561        C562   1.385   1_545  A
C562        C563   1.403       .  A
C562        N568   1.343       .  A
C563        C564   1.402       .  A
C563        H572   1.082       .  S
C564        C567   1.377       .  A
N565        C566   1.355   1_545  A
N565        H575   1.045       .  S
C566        C567   1.396       .  A
C567        H573   1.082       .  S
N568        C569   1.356       .  A
N568        H576   1.045       .  S
C569        C570   1.395   1_565  A
C570        H574   1.082       .  S
C577        C582   1.385       .  A
C577        C578   1.403       .  A
C577        N583   1.345       .  A
C578        C579   1.403       .  A
C578        H589   1.082       .  S
C579        C588   1.375       .  A
C579        C580   1.385       .  A
C580        C581   1.402   1_655  A
C580        N586   1.344   1_655  A
C581        C582   1.402   1_455  A
C581        H590   1.082       .  S
C582        C585   1.373   1_655  A
N583        C584   1.356       .  A
N583        H593   1.045       .  S
C584        C585   1.395   1_655  A
C585        H591   1.082       .  S
N586        C587   1.355   1_455  A
N586        H594   1.045       .  S
C587        C588   1.396       .  A
C588        H592   1.082       .  S
C595        C600   1.384       .  A
C595        C596   1.403       .  A
C595        N601   1.342       .  A
C596        C597   1.402       .  A
C596        H607   1.082       .  S
C597        C606   1.378       .  A
C597        C598   1.384       .  A
C598        C599   1.402   1_455  A
C598        N604   1.341   1_455  A
C599        C600   1.401   1_655  A
C599        H608   1.082       .  S
C600        C603   1.377   1_455  A
N601        C602   1.356       .  A
N601        H611   1.045       .  S
C602        C603   1.395   1_455  A
C603        H609   1.083       .  S
N604        C605   1.355   1_655  A
N604        H612   1.045       .  S
C605        C606   1.396       .  A
C606        H610   1.083       .  S
C613        C618   1.384   1_455  A
C613        C614   1.402       .  A
C613        N619   1.341       .  A
C614        C615   1.401       .  A
C614        H625   1.082       .  S
C615        C624   1.378       .  A
C615        C616   1.384   1_455  A
C616        C617   1.403       .  A
C616        N622   1.342       .  A
C617        C618   1.402       .  A
C617        H626   1.082       .  S
C618        C621   1.379       .  A
N619        C620   1.355   1_455  A
N619        H629   1.045       .  S
C620        C621   1.396       .  A
C621        H627   1.083       .  S
N622        C623   1.356       .  A
N622        H630   1.045       .  S
C623        C624   1.395   1_655  A
C624        H628   1.083       .  S
C631        C636   1.384   1_455  A
C631        C632   1.404       .  A
C631        N637   1.342       .  A
C632        C633   1.402       .  A
C632        H643   1.082       .  S
C633        C642   1.379       .  A
C633        C634   1.384   1_455  A
C634        C635   1.403       .  A
C634        N640   1.342       .  A
C635        C636   1.401       .  A
C635        H644   1.082       .  S
C636        C639   1.378       .  A
N637        C638   1.356       .  A
N637        H647   1.045       .  S
C638        C639   1.396   1_455  A
C639        H645   1.083       .  S
N640        C641   1.355   1_655  A
N640        H648   1.045       .  S
C641        C642   1.396       .  A
C642        H646   1.082       .  S
