geometry optimzed in LAMMPS
_audit_creation_date              2020-11-30 
_audit_creation_method            'lammps2cif' 
_symmetry_space_group_name_H-M    'P1' 
_symmetry_Int_Tables_number       1 
_symmetry_cell_setting            triclinic 
loop_ 
_symmetry_equiv_pos_as_xyz 
  x,y,z 
_cell_length_a                    37.83245696 
_cell_length_b                    37.76179851850941 
_cell_length_c                    44.431073786613325 
_cell_angle_alpha                 90.10208400389592 
_cell_angle_beta                  89.82478424731025 
_cell_angle_gamma                 90.12907320436935 
loop_ 
_atom_site_label 
_atom_site_type_symbol 
_atom_site_fract_x 
_atom_site_fract_y 
_atom_site_fract_z 
_atom_site_charge 
C1          C  0.42812667  0.86508277  0.99647806     0.88600
C2          C  0.40432840  0.85680453  0.96960472    -0.51700
C3          C  0.37318813  0.87493812  0.97019581     0.11500
C4          C  0.36844971  0.89907291  0.99788608     0.22400
C5          C  0.43236208  0.90557402  0.99629750    -0.52400
C6          C  0.40102864  0.92321399  0.99701530     0.11600
C7          C  0.40598225  0.85703379  0.02448697    -0.51900
C8          C  0.37483753  0.87511415  0.02535790     0.12200
H9          H  0.41249699  0.84037302  0.95073014     0.16700
H10         H  0.34301288  0.91373974  0.99849538     0.02400
H11         H  0.45777962  0.91903278  0.99566996     0.17000
H12         H  0.41516452  0.84055732  0.04289430     0.16800
C13         C  0.59593164  0.86433115  0.99397384     0.88600
C14         C  0.61885563  0.85584735  0.02127611    -0.51700
C15         C  0.65044341  0.87329273  0.02119821     0.11500
C16         C  0.65647921  0.89701158  0.99348810     0.22400
C17         C  0.59272289  0.90494018  0.99392303    -0.52400
C18         C  0.62456686  0.92184625  0.99369658     0.11600
C19         C  0.61852269  0.85554158  0.96637556    -0.51900
C20         C  0.65009588  0.87304613  0.96592874     0.12200
H21         H  0.60981302  0.83977052  0.04006311     0.16700
H22         H  0.68230698  0.91110844  0.99331727     0.02400
H23         H  0.56767024  0.91896152  0.99436290     0.17000
H24         H  0.60918658  0.83939329  0.94774009     0.16800
C25         C  0.60682421  0.15533453  0.00963876     0.88600
C26         C  0.62935944  0.16584557  0.98236081    -0.51700
C27         C  0.66075341  0.14812978  0.98058416     0.11500
C28         C  0.66705818  0.12222786  0.00692298     0.22400
C29         C  0.60319105  0.11496424  0.00737723    -0.52400
C30         C  0.63467346  0.09776366  0.00590298     0.11600
C31         C  0.63011286  0.16171450  0.03721610    -0.51900
C32         C  0.66156129  0.14409006  0.03604963     0.12200
H33         H  0.61994214  0.18323840  0.96466816     0.16700
H34         H  0.69263357  0.10786077  0.00576809     0.02400
H35         H  0.57792988  0.10120507  0.00666255     0.17000
H36         H  0.62150931  0.17676280  0.05676820     0.16800
C37         C  0.43671352  0.15608701  0.00688622     0.88600
C38         C  0.41290553  0.16407411  0.03395440    -0.51700
C39         C  0.38061749  0.14801912  0.03243556     0.11500
C40         C  0.37487775  0.12600424  0.00348260     0.22400
C41         C  0.43823486  0.11548918  0.00515474    -0.52400
C42         C  0.40582980  0.09989584  0.00331028     0.11600
C43         C  0.41565243  0.16720339  0.97903818    -0.51900
C44         C  0.38340472  0.15102696  0.97696018     0.12200
H45         H  0.42167962  0.17900184  0.05349616     0.16700
H46         H  0.34857724  0.11294539  0.00204391     0.02400
H47         H  0.46270950  0.10046521  0.00516802     0.17000
H48         H  0.42645433  0.18392173  0.96136903     0.16800
In49       In  0.30811541  0.89342490  0.16428091     1.36900
C50         C  0.25048760  0.85356086  0.16947594     0.79700
O51         O  0.29826712  0.89355121  0.11434166    -0.58800
O52         O  0.34978743  0.88092219  0.12989856    -0.49700
C53         C  0.31121618  0.96348663  0.16665445     0.72300
O54         O  0.28223024  0.94689325  0.16552724    -0.44600
C55         C  0.34247769  0.86973790  0.21227740     0.77000
O56         O  0.25033394  0.88601934  0.17620606    -0.56400
O57         O  0.34723247  0.85732164  0.18627977    -0.46500
O58         O  0.27980024  0.84208359  0.16021961    -0.52800
C59         C  0.32948337  0.88496991  0.10777081     0.87200
O60         O  0.33834451  0.94422368  0.16691789    -0.54700
O61         O  0.32043843  0.89467302  0.21376804    -0.58000
In62       In  0.29492943  0.13209876  0.16541464     1.36900
C63         C  0.32548511  0.14005967  0.11144823     0.79700
O64         O  0.31842853  0.07779584  0.16536850    -0.58800
O65         O  0.26242268  0.08232154  0.16619467    -0.49700
C66         C  0.32296769  0.14614162  0.21949029     0.72300
O67         O  0.33387432  0.16055246  0.19560582    -0.44600
C68         C  0.24027351  0.17655060  0.16479614     0.77000
O69         O  0.34206721  0.14421181  0.13576555    -0.56400
O70         O  0.23650581  0.14350005  0.16648774    -0.46500
O71         O  0.29338312  0.13206349  0.11457917    -0.52800
C72         C  0.28891477  0.06214071  0.16593882     0.87200
O73         O  0.29814906  0.12440165  0.21567357    -0.54700
O74         O  0.27194977  0.18686966  0.16357307    -0.58000
In75       In  0.63228007  0.80376795  0.33930404     1.36900
C76         C  0.68365331  0.75587525  0.33808725     0.79700
O77         O  0.63595751  0.80967072  0.28892641    -0.58800
O78         O  0.65686589  0.85064934  0.31640132    -0.49700
C79         C  0.56237354  0.79594375  0.33511339     0.72300
O80         O  0.58303409  0.76982991  0.33666813    -0.44600
C81         C  0.63633946  0.82718463  0.39546954     0.77000
O82         O  0.65203131  0.74778208  0.33208620    -0.56400
O83         O  0.64036009  0.84716986  0.37304888    -0.46500
O84         O  0.68849081  0.78782671  0.34492611    -0.52800
C85         C  0.65215877  0.83888937  0.29017882     0.87200
O86         O  0.57757827  0.82569227  0.33504420    -0.54700
O87         O  0.62965201  0.79529957  0.38935383    -0.58000
In88       In  0.39342978  0.81750774  0.34130572     1.36900
C89         C  0.34621233  0.76572698  0.33795497     0.79700
O90         O  0.39632756  0.80558005  0.39074956    -0.58800
O91         O  0.37857889  0.85649674  0.37707123    -0.49700
C92         C  0.46354252  0.81856515  0.33602044     0.72300
O93         O  0.44609781  0.79001013  0.33530437    -0.44600
C94         C  0.37217702  0.85201861  0.29283479     0.77000
O95         O  0.37897379  0.75977281  0.33553245    -0.56400
O96         O  0.36789090  0.86416571  0.31904015    -0.46500
O97         O  0.33813555  0.79765345  0.34200681    -0.52800
C98         C  0.38484751  0.83554503  0.39840362     0.87200
O99         O  0.44511705  0.84607728  0.33899929    -0.54700
O100        O  0.38866146  0.82303124  0.29145453    -0.58000
In101      In  0.71296484  0.88583462  0.16127756     1.36900
C102        C  0.69431590  0.88116737  0.10391405     0.79700
O103        O  0.68528173  0.93805963  0.16445873    -0.58800
O104        O  0.74139228  0.93811232  0.16617423    -0.49700
C105        C  0.67724723  0.86214841  0.20901580     0.72300
O106        O  0.66896903  0.85414869  0.18241286    -0.44600
C107        C  0.76623848  0.84036432  0.16422436     0.77000
O108        O  0.67291716  0.87582027  0.12522807    -0.56400
O109        O  0.76994915  0.87253259  0.17142544    -0.46500
O110        O  0.72526800  0.88923010  0.11175084    -0.52800
C111        C  0.71325009  0.95606316  0.16651050     0.87200
O112        O  0.70306509  0.88318136  0.21117724    -0.54700
O113        O  0.73571854  0.83191882  0.15564364    -0.58000
In114      In  0.73816582  0.12456930  0.17192748     1.36900
C115        C  0.79335054  0.16913172  0.17096372     0.79700
O116        O  0.74259648  0.12131006  0.12127457    -0.58800
O117        O  0.69477462  0.14071809  0.14004121    -0.49700
C118        C  0.74019883  0.05392828  0.17249149     0.72300
O119        O  0.76765160  0.07283752  0.17379941    -0.44600
C120        C  0.70752895  0.14269713  0.22449106     0.77000
O121        O  0.79698183  0.13629629  0.17485173    -0.56400
O122        O  0.69518931  0.15144844  0.19925732    -0.46500
O123        O  0.76175719  0.17888165  0.16781922    -0.52800
C124        C  0.71205061  0.13319259  0.11659121     0.87200
O125        O  0.71166555  0.07113697  0.17173111    -0.54700
O126        O  0.73494472  0.12389216  0.22287973    -0.58000
In127      In  0.38965374  0.21562904  0.33882227     1.36900
C128        C  0.34133093  0.26631437  0.34075610     0.79700
O129        O  0.38965615  0.21951959  0.28856889    -0.58800
O130        O  0.36392060  0.17518653  0.30846717    -0.49700
C131        C  0.45971045  0.21078979  0.33574615     0.72300
O132        O  0.44402535  0.24040768  0.33574356    -0.44600
C133        C  0.38118106  0.19210107  0.39454558     0.77000
O134        O  0.37393692  0.27362533  0.33833882    -0.56400
O135        O  0.37448272  0.17312924  0.37178091    -0.46500
O136        O  0.33422005  0.23380197  0.34244557    -0.52800
C137        C  0.37184644  0.19165857  0.28459743     0.87200
O138        O  0.43955745  0.18422853  0.33725432    -0.54700
O139        O  0.39239250  0.22284686  0.38885407    -0.58000
In140      In  0.62989598  0.22294446  0.33558297     1.36900
C141        C  0.67221684  0.27958354  0.33613033     0.79700
O142        O  0.63094900  0.22800521  0.38622703    -0.58800
O143        O  0.63738903  0.17686701  0.36732880    -0.49700
C144        C  0.55965664  0.22958910  0.33319194     0.72300
O145        O  0.58044129  0.25567501  0.33322034    -0.44600
C146        C  0.65175979  0.19197954  0.28417992     0.77000
O147        O  0.63935046  0.28179054  0.33229883    -0.56400
O148        O  0.66399867  0.18389335  0.30959989    -0.46500
O149        O  0.68347911  0.24843411  0.33933553    -0.52800
C150        C  0.63562799  0.19551977  0.39081681     0.87200
O151        O  0.57477722  0.19979728  0.33359463    -0.54700
O152        O  0.62782330  0.21508055  0.28513458    -0.58000
C153        C  0.65348823  0.92633047  0.50727255     0.88600
C154        C  0.66162410  0.90474593  0.47894832    -0.51700
C155        C  0.64389025  0.87330972  0.47782110     0.11500
C156        C  0.62018043  0.86603730  0.50535743     0.22400
C157        C  0.61307337  0.92996125  0.50774082    -0.52400
C158        C  0.59579986  0.89834191  0.50672215     0.11600
C159        C  0.66210916  0.90207833  0.53383531    -0.51900
C160        C  0.64439226  0.87053894  0.53293674     0.12200
H161        H  0.67791450  0.91449789  0.46053980     0.16700
H162        H  0.60576762  0.84037154  0.50450286     0.02400
H163        H  0.59937716  0.95521542  0.50871010     0.17000
H164        H  0.67891693  0.90993420  0.55248530     0.16800
C165        C  0.36179889  0.92875565  0.51160819     0.88600
C166        C  0.35329803  0.90449485  0.53821249    -0.51700
C167        C  0.37090377  0.87302115  0.53704262     0.11500
C168        C  0.39486159  0.86854287  0.50927051     0.22400
C169        C  0.40227179  0.93243766  0.51162498    -0.52400
C170        C  0.41937879  0.90079343  0.51036688     0.11600
C171        C  0.35339509  0.90720625  0.48333576    -0.51900
C172        C  0.37106651  0.87580642  0.48201298     0.07400
H173        H  0.33683894  0.91237471  0.55714764     0.16700
H174        H  0.40914080  0.84286549  0.50825505     0.02400
H175        H  0.41608754  0.95769573  0.51227796     0.17000
H176        H  0.33743023  0.91718412  0.46491944     0.16800
C177        C  0.65325385  0.09484887  0.50299718     0.88600
C178        C  0.66320720  0.11985830  0.52877352    -0.51700
C179        C  0.64569301  0.15139821  0.52800030     0.11500
C180        C  0.62041658  0.15524230  0.50098342     0.22400
C181        C  0.61285365  0.09141101  0.50481808    -0.52400
C182        C  0.59581811  0.12308464  0.50372017     0.11600
C183        C  0.66032172  0.11549124  0.47397021    -0.51900
C184        C  0.64284527  0.14702588  0.47274009     0.12200
H185        H  0.68046203  0.11228346  0.54717166     0.16700
H186        H  0.60618063  0.18093254  0.50012207     0.02400
H187        H  0.59899903  0.06625433  0.50669128     0.17000
H188        H  0.67593747  0.10517567  0.45536702     0.16800
C189        C  0.36159476  0.09695996  0.50894883     0.88600
C190        C  0.35326435  0.11759185  0.48026843    -0.51700
C191        C  0.37104492  0.14895422  0.47823114     0.11500
C192        C  0.39487596  0.15715036  0.50553770     0.22400
C193        C  0.40201822  0.09331982  0.50908067    -0.52400
C194        C  0.41928984  0.12489306  0.50726555     0.11600
C195        C  0.35316990  0.12194608  0.53508790    -0.51900
C196        C  0.37091369  0.15337819  0.53357468     0.12200
H197        H  0.33704063  0.10709005  0.46217269     0.16700
H198        H  0.40927369  0.18278154  0.50407085     0.02400
H199        H  0.41571309  0.06809447  0.51035474     0.17000
H200        H  0.33696334  0.11434746  0.55426721     0.16800
In201      In  0.30009751  0.89766751  0.83487799     1.36900
C202        C  0.32438736  0.88771435  0.88986325     0.79700
O203        O  0.33171301  0.94744085  0.83242293    -0.58800
O204        O  0.27581108  0.95261495  0.83504768    -0.49700
C205        C  0.32586749  0.87709864  0.78197773     0.72300
O206        O  0.34130578  0.87083496  0.80654148    -0.44600
C207        C  0.24919496  0.84969847  0.83736988     0.77000
O208        O  0.34234612  0.88046572  0.86667375    -0.56400
O209        O  0.24214687  0.88176341  0.83156366    -0.46500
O210        O  0.29421292  0.90061670  0.88504633    -0.52800
C211        C  0.30557595  0.96799073  0.83378141     0.87200
O212        O  0.29800433  0.89519544  0.78436950    -0.54700
O213        O  0.28129505  0.84316817  0.84178739    -0.58000
In214      In  0.30289589  0.13848011  0.84134343     1.36900
C215        C  0.25454277  0.18983667  0.84187021     0.79700
O216        O  0.30093268  0.13987925  0.89207605    -0.58800
O217        O  0.35100883  0.14560650  0.87102199    -0.49700
C218        C  0.29114333  0.06871092  0.83953515     0.72300
O219        O  0.26680503  0.09095027  0.84380534    -0.44600
C220        C  0.32974579  0.15288359  0.78698204     0.77000
O221        O  0.24635134  0.15757966  0.83914493    -0.56400
O222        O  0.34456537  0.16260771  0.81105268    -0.46500
O223        O  0.28715247  0.19560697  0.84456610    -0.52800
C224        C  0.33365494  0.14450750  0.89529506     0.87200
O225        O  0.32152911  0.08216486  0.83643339    -0.54700
O226        O  0.30203383  0.13492560  0.79078677    -0.58000
In227      In  0.39618218  0.22708022  0.66926601     1.36900
C228        C  0.35703876  0.28562885  0.67248896     0.79700
O229        O  0.39671327  0.23336879  0.61884460    -0.58800
O230        O  0.37535294  0.18593140  0.63709869    -0.49700
C231        C  0.46606148  0.21950589  0.66917714     0.72300
O232        O  0.45125836  0.24938554  0.66748603    -0.44600
C233        C  0.37882484  0.19953595  0.72252497     0.77000
O234        O  0.39030254  0.28655200  0.67440756    -0.56400
O235        O  0.36697415  0.18723877  0.69807764    -0.46500
O236        O  0.34429712  0.25503306  0.66896279    -0.52800
C237        C  0.38285063  0.20360425  0.61387340     0.87200
O238        O  0.44511318  0.19359956  0.67083133    -0.54700
O239        O  0.39973441  0.22529620  0.71955864    -0.58000
In240      In  0.63581364  0.23194653  0.66330665     1.36900
C241        C  0.64104616  0.20493721  0.60769218     0.79700
O242        O  0.58119759  0.20911208  0.67049385    -0.58800
O243        O  0.58592538  0.26373358  0.66034468    -0.49700
C244        C  0.66302841  0.19753177  0.71089899     0.72300
O245        O  0.67250701  0.19186007  0.68414427    -0.44600
C246        C  0.67545304  0.29017428  0.66653362     0.77000
O247        O  0.63965564  0.18597510  0.63095810    -0.56400
O248        O  0.64467642  0.28883410  0.67738455    -0.46500
O249        O  0.63981327  0.23774309  0.61262503    -0.52800
C250        C  0.56564729  0.23809877  0.66585099     0.87200
O251        O  0.63903104  0.22046163  0.71349976    -0.54700
O252        O  0.68566525  0.26188597  0.65417973    -0.58000
In253      In  0.39292775  0.79313450  0.66971742     1.36900
C254        C  0.35019417  0.73711676  0.67123195     0.79700
O255        O  0.39483902  0.79662676  0.72024741    -0.58800
O256        O  0.36368368  0.83405864  0.69675052    -0.49700
C257        C  0.46300388  0.79713284  0.66963620     0.72300
O258        O  0.44687937  0.76779937  0.66982201    -0.44600
C259        C  0.38164878  0.81917134  0.61525169     0.77000
O260        O  0.38315523  0.73411602  0.67467501    -0.56400
O261        O  0.37620690  0.83671007  0.63893552    -0.46500
O262        O  0.33977944  0.76832641  0.66681644    -0.52800
C263        C  0.37431402  0.82280096  0.72181871     0.87200
O264        O  0.44332875  0.82395095  0.66977959    -0.54700
O265        O  0.39277343  0.78809498  0.61918241    -0.58000
In266      In  0.63181819  0.78609143  0.66554392     1.36900
C267        C  0.67974723  0.73480227  0.66527223     0.79700
O268        O  0.63205479  0.78225546  0.61478159    -0.58800
O269        O  0.64088729  0.83251385  0.63493053    -0.49700
C270        C  0.56214518  0.77749990  0.66778338     0.72300
O271        O  0.58317281  0.75171814  0.66646633    -0.44600
C272        C  0.64818799  0.81752142  0.71760807     0.77000
O273        O  0.64740352  0.72868162  0.66967220    -0.56400
O274        O  0.63028369  0.78942885  0.71621406    -0.46500
O275        O  0.68730224  0.76693544  0.66111721    -0.52800
C276        C  0.63816237  0.81474984  0.61104317     0.87200
O277        O  0.57680327  0.80752702  0.66804503    -0.54700
O278        O  0.65735415  0.82978568  0.69240195    -0.58000
In279      In  0.71937440  0.89995846  0.82872442     1.36900
C280        C  0.77790853  0.86118505  0.82966217     0.79700
O281        O  0.72520669  0.90240077  0.87904713    -0.58800
O282        O  0.67830541  0.87968900  0.86106535    -0.49700
C283        C  0.71165305  0.97019635  0.82598305     0.72300
O284        O  0.74154473  0.95542331  0.82663019    -0.44600
C285        C  0.69330002  0.87594478  0.77686534     0.77000
O286        O  0.77882813  0.89425600  0.82569778    -0.56400
O287        O  0.68002579  0.86792981  0.80203237    -0.46500
O288        O  0.74734054  0.84847578  0.83295732    -0.52800
C289        C  0.69594469  0.88762123  0.88414244     0.87200
O290        O  0.68584036  0.94904310  0.82618309    -0.54700
O291        O  0.71908449  0.89704980  0.77821421    -0.58000
In292      In  0.72379637  0.14039120  0.83818320     1.36900
C293        C  0.70341487  0.14291986  0.89612275     0.79700
O294        O  0.70028978  0.08538823  0.83309153    -0.58800
O295        O  0.75577789  0.09121049  0.82938223    -0.49700
C296        C  0.68808227  0.16715323  0.79107524     0.72300
O297        O  0.67896189  0.17217632  0.81804213    -0.44600
C298        C  0.77877327  0.18480238  0.83727526     0.77000
O299        O  0.68193615  0.14450290  0.87456258    -0.56400
O300        O  0.78206181  0.15199000  0.83292212    -0.46500
O301        O  0.73519718  0.13954166  0.88829199    -0.52800
C302        C  0.72974743  0.07040981  0.82928360     0.87200
O303        O  0.71477571  0.14751194  0.78808633    -0.54700
O304        O  0.74744802  0.19479194  0.84197628    -0.58000
C305        C  0.86677408  0.61319965  0.00848362     0.88600
C306        C  0.85762698  0.63563392  0.98096933    -0.51700
C307        C  0.87588501  0.66679613  0.97965318     0.11500
C308        C  0.90094422  0.67300259  0.00652882     0.22400
C309        C  0.90712402  0.60895266  0.00722601    -0.52400
C310        C  0.92483233  0.64033586  0.00621938     0.11600
C311        C  0.85993711  0.63681603  0.03592229    -0.51900
C312        C  0.87825587  0.66800455  0.03515765     0.12200
H313        H  0.84064127  0.62635558  0.96290098     0.16700
H314        H  0.91572576  0.69845365  0.00568316     0.02400
H315        H  0.92046274  0.58348322  0.00722734     0.17000
H316        H  0.84453390  0.62833824  0.05530826     0.16800
C317        C  0.86361204  0.44425064  0.00863860     0.88600
C318        C  0.85436151  0.42035922  0.03528774    -0.51700
C319        C  0.87102664  0.38836964  0.03434063     0.11500
C320        C  0.89486606  0.38301741  0.00642274     0.22400
C321        C  0.90416622  0.44670037  0.00867701    -0.52400
C322        C  0.92039068  0.41458238  0.00744358     0.11600
C323        C  0.85456359  0.42289323  0.98040372    -0.51900
C324        C  0.87128484  0.39098135  0.97898403     0.12200
H325        H  0.83821887  0.42890868  0.05421459     0.16700
H326        H  0.90838229  0.35693364  0.00546210     0.02400
H327        H  0.91869279  0.47155871  0.00915808     0.17000
H328        H  0.83863637  0.43323306  0.96211466     0.16800
C329        C  0.15502623  0.43591572  0.99569343     0.88600
C330        C  0.16227634  0.41052868  0.96953868    -0.51700
C331        C  0.14393151  0.37945424  0.97162993     0.11500
C332        C  0.12066373  0.37641305  0.00011523     0.22400
C333        C  0.11468915  0.44033573  0.99629237    -0.52400
C334        C  0.09682809  0.40914666  0.99862254     0.11600
C335        C  0.16372615  0.41529155  0.02434383    -0.51900
C336        C  0.14546238  0.38424451  0.02686453     0.12200
H337        H  0.17824790  0.41755549  0.95006380     0.16700
H338        H  0.10579659  0.35109218  0.00200666     0.02400
H339        H  0.10146331  0.46582300  0.99511118     0.17000
H340        H  0.18092528  0.42540652  0.04193458     0.16800
C341        C  0.15736756  0.60456705  0.99873162     0.88600
C342        C  0.16836484  0.62485477  0.02701964    -0.51700
C343        C  0.15213053  0.65690445  0.02981268     0.11500
C344        C  0.12696712  0.66601056  0.00377016     0.22400
C345        C  0.11684503  0.60249967  0.00039387    -0.52400
C346        C  0.10110480  0.63475760  0.00295914     0.11600
C347        C  0.16522459  0.62931486  0.97233897    -0.51900
C348        C  0.14904488  0.66143072  0.97486501     0.12200
H349        H  0.18535486  0.61383070  0.04429763     0.16700
H350        H  0.11381060  0.69219218  0.00590837     0.02400
H351        H  0.10198680  0.57785997  0.99938816     0.17000
H352        H  0.18008124  0.62129901  0.95250293     0.16800
In353      In  0.79943208  0.39290006  0.34129310     1.36900
C354        C  0.82948104  0.38728832  0.39503894     0.79700
O355        O  0.81833252  0.44900622  0.33819145    -0.58800
O356        O  0.76297509  0.44016765  0.34147256    -0.49700
C357        C  0.82665334  0.37970876  0.28711710     0.72300
O358        O  0.84184064  0.37057670  0.31113229    -0.44600
C359        C  0.75422445  0.33892258  0.34150547     0.77000
O360        O  0.84710785  0.38726167  0.37091400    -0.56400
O361        O  0.74395046  0.37072293  0.34047905    -0.46500
O362        O  0.79661246  0.39083661  0.39186633    -0.52800
C363        C  0.78780527  0.46239093  0.33894670     0.87200
O364        O  0.79828650  0.39653614  0.29088891    -0.54700
O365        O  0.78718796  0.33507039  0.34291945    -0.58000
In366      In  0.79918599  0.63290939  0.33071698     1.36900
C367        C  0.74153229  0.67330052  0.33023874     0.79700
O368        O  0.79492441  0.63152544  0.38134513    -0.58800
O369        O  0.84294400  0.64951069  0.36175278    -0.49700
C370        C  0.80379218  0.56236481  0.32969071     0.72300
O371        O  0.77484077  0.57812944  0.33410268    -0.44600
C372        C  0.82918722  0.65572243  0.27980816     0.77000
O373        O  0.74017569  0.64056215  0.32463405    -0.56400
O374        O  0.83950804  0.66523856  0.30553566    -0.46500
O375        O  0.77206398  0.68489109  0.33573857    -0.52800
C376        C  0.82579646  0.64298413  0.38542840     0.87200
O377        O  0.82967438  0.58258117  0.32481245    -0.54700
O378        O  0.80370218  0.63409420  0.28003275    -0.58000
In379      In  0.90284700  0.74197033  0.17177753     1.36900
C380        C  0.85522854  0.79361371  0.17249006     0.79700
O381        O  0.90272007  0.74829067  0.12116445    -0.58800
O382        O  0.89051949  0.69777201  0.13935001    -0.49700
C383        C  0.97317880  0.74742918  0.17395892     0.72300
O384        O  0.95327872  0.77408910  0.17260185    -0.44600
C385        C  0.88272638  0.71085332  0.22308807     0.77000
O386        O  0.88755566  0.79953872  0.17727893    -0.56400
O387        O  0.87796375  0.69696692  0.19760016    -0.46500
O388        O  0.84773116  0.76165134  0.16742638    -0.52800
C389        C  0.89397316  0.71662787  0.11615562     0.87200
O390        O  0.95708686  0.71815814  0.17470660    -0.54700
O391        O  0.89922161  0.73987180  0.22248136    -0.58000
In392      In  0.14164391  0.72256612  0.16965285     1.36900
C393        C  0.14760381  0.70010972  0.11346996     0.79700
O394        O  0.08979013  0.69505505  0.17520597    -0.58800
O395        O  0.08928476  0.75117899  0.17109109    -0.49700
C396        C  0.16103584  0.69581497  0.22220981     0.72300
O397        O  0.16407626  0.67856772  0.19790546    -0.44600
C398        C  0.19222482  0.77078094  0.16759538     0.77000
O399        O  0.15436503  0.68046384  0.13569226    -0.56400
O400        O  0.16050102  0.77923532  0.17324103    -0.46500
O401        O  0.13741383  0.73095075  0.11991082    -0.52800
C402        C  0.07159421  0.72291647  0.17405275     0.87200
O403        O  0.14704562  0.72591640  0.21958328    -0.54700
O404        O  0.19744373  0.73828590  0.16312264    -0.58000
In405      In  0.23017121  0.39361243  0.33799310     1.36900
C406        C  0.28656628  0.35156380  0.33829251     0.79700
O407        O  0.23638184  0.39851336  0.38814712    -0.58800
O408        O  0.18938313  0.37460315  0.37151690    -0.49700
C409        C  0.22678259  0.46343997  0.33749805     0.72300
O410        O  0.25552108  0.44698170  0.33383332    -0.44600
C411        C  0.20169167  0.37826185  0.28418884     0.77000
O412        O  0.28932805  0.38479802  0.33681457    -0.56400
O413        O  0.18924781  0.36621513  0.30855047    -0.46500
O414        O  0.25520899  0.34026518  0.33941485    -0.52800
C415        C  0.20706410  0.38434649  0.39415630     0.87200
O416        O  0.19985769  0.44412979  0.34097786    -0.54700
O417        O  0.22812896  0.39817479  0.28750184    -0.58000
In418      In  0.24358763  0.63157023  0.33549401     1.36900
C419        C  0.21680241  0.64050653  0.39032935     0.79700
O420        O  0.22029167  0.57736691  0.33771423    -0.58800
O421        O  0.27614205  0.58199622  0.33387840    -0.49700
C422        C  0.21217864  0.64647547  0.28328916     0.72300
O423        O  0.20202616  0.65924294  0.30807628    -0.44600
C424        C  0.29648132  0.67771857  0.33379958     0.77000
O425        O  0.19790156  0.63953378  0.36704972    -0.56400
O426        O  0.30153325  0.64484316  0.33141385    -0.46500
O427        O  0.24946256  0.63703277  0.38576707    -0.52800
C428        C  0.24966288  0.56180296  0.33583505     0.87200
O429        O  0.23799012  0.62565579  0.28523564    -0.54700
O430        O  0.26456354  0.68664815  0.33675394    -0.58000
In431      In  0.89237000  0.30923943  0.16794183     1.36900
C432        C  0.88088680  0.33598353  0.11373748     0.79700
O433        O  0.94230803  0.34111127  0.16808388    -0.58800
O434        O  0.94740265  0.28511614  0.16837525    -0.49700
C435        C  0.87543544  0.33391302  0.22228678     0.72300
O436        O  0.86638193  0.34935016  0.19834353    -0.44600
C437        C  0.84573979  0.25630902  0.16612828     0.77000
O438        O  0.87442029  0.35302065  0.13759366    -0.56400
O439        O  0.87850563  0.25046606  0.16904624    -0.46500
O440        O  0.89326793  0.30533098  0.11750155    -0.52800
C441        C  0.96284360  0.31490756  0.16823000     0.87200
O442        O  0.89373178  0.30643215  0.21839942    -0.54700
O443        O  0.83761742  0.28847291  0.16397962    -0.58000
In444      In  0.13357347  0.30887301  0.16427993     1.36900
C445        C  0.18498011  0.26120044  0.16148419     0.79700
O446        O  0.13381378  0.30438823  0.11378631    -0.58800
O447        O  0.14103702  0.35548180  0.13301867    -0.49700
C448        C  0.06358907  0.29890498  0.16660855     0.72300
O449        O  0.08535381  0.27369175  0.16495802    -0.44600
C450        C  0.15078215  0.33402140  0.21890339     0.77000
O451        O  0.15295268  0.25240736  0.16477772    -0.56400
O452        O  0.15882885  0.35009561  0.19490462    -0.46500
O453        O  0.19033705  0.29398064  0.15924317    -0.52800
C454        C  0.13906260  0.33689967  0.10940425     0.87200
O455        O  0.07763842  0.32929715  0.16729250    -0.54700
O456        O  0.13268349  0.30640883  0.21490573    -0.58000
C457        C  0.93791144  0.36998969  0.50097051     0.88600
C458        C  0.91441257  0.36086735  0.47404262    -0.51700
C459        C  0.88323853  0.37899005  0.47398244     0.11500
C460        C  0.87821590  0.40395658  0.50109231     0.22400
C461        C  0.94214645  0.41044637  0.49988529    -0.52400
C462        C  0.91078696  0.42803106  0.49991113     0.11600
C463        C  0.91540190  0.36285625  0.52900872    -0.51900
C464        C  0.88426064  0.38099586  0.52922132     0.12200
H465        H  0.92271593  0.34372853  0.45567811     0.16700
H466        H  0.85279133  0.41865913  0.50111527     0.02400
H467        H  0.96755119  0.42390902  0.49895890     0.17000
H468        H  0.92437034  0.34700934  0.54788382     0.16800
C469        C  0.93708057  0.66202150  0.48718930     0.88600
C470        C  0.91677148  0.67131715  0.51591200    -0.51700
C471        C  0.88538809  0.65379359  0.51852652     0.11500
C472        C  0.87685701  0.62914690  0.49180584     0.22400
C473        C  0.94049469  0.62152310  0.48770262    -0.52400
C474        C  0.90891220  0.60446202  0.49015386     0.11600
C475        C  0.91196928  0.66989336  0.46118175    -0.51900
C476        C  0.88047818  0.65240830  0.46344132     0.12200
H477        H  0.92744454  0.68808512  0.53361096     0.16700
H478        H  0.85120310  0.61492520  0.49380045     0.02400
H479        H  0.96560195  0.60763105  0.48656413     0.17000
H480        H  0.91927619  0.68587407  0.44180986     0.16800
C481        C  0.10442688  0.65994630  0.49100018     0.88600
C482        C  0.13051526  0.66787829  0.46555921    -0.51700
C483        C  0.16163311  0.65003211  0.46820214     0.11500
C484        C  0.16400121  0.62641787  0.49637073     0.22400
C485        C  0.10039773  0.61944738  0.49108516    -0.52400
C486        C  0.13169688  0.60209612  0.49399130     0.11600
C487        C  0.12394057  0.66863705  0.52020894    -0.51900
C488        C  0.15500919  0.65073407  0.52314689     0.12200
H489        H  0.12405475  0.68410461  0.44616987     0.16700
H490        H  0.18938551  0.61191733  0.49867915     0.02400
H491        H  0.07514934  0.60580473  0.48941446     0.17000
H492        H  0.11295429  0.68524176  0.53790135     0.16800
C493        C  0.10597493  0.36811183  0.50367868     0.88600
C494        C  0.12755481  0.36127585  0.53210233    -0.51700
C495        C  0.15906074  0.37891632  0.53253825     0.11500
C496        C  0.16637494  0.40114940  0.50398249     0.22400
C497        C  0.10260765  0.40855526  0.50189665    -0.52400
C498        C  0.13426590  0.42569203  0.50212590     0.11600
C499        C  0.12988000  0.35798818  0.47726302    -0.51900
C500        C  0.16134106  0.37569352  0.47701282     0.12200
H501        H  0.11764375  0.34611921  0.55112182     0.16700
H502        H  0.19208319  0.41544905  0.50411465     0.02400
H503        H  0.07748250  0.42238176  0.50063823     0.17000
H504        H  0.12131611  0.34097864  0.45890716     0.16800
In505      In  0.88460451  0.31902627  0.84050782     1.36900
C506        C  0.83400337  0.27012958  0.84059823     0.79700
O507        O  0.88614071  0.31308978  0.89076882    -0.58800
O508        O  0.87349867  0.36376535  0.87287172    -0.49700
C509        C  0.95477912  0.31852683  0.83792618     0.72300
O510        O  0.93695408  0.29028731  0.84083925    -0.44600
C511        C  0.87058715  0.34349634  0.78573081     0.77000
O512        O  0.86636679  0.26192843  0.83858235    -0.56400
O513        O  0.86005729  0.35914227  0.80932590    -0.46500
O514        O  0.82804062  0.30281924  0.84285991    -0.52800
C515        C  0.87825968  0.34491074  0.89598092     0.87200
O516        O  0.93665174  0.34644656  0.83642308    -0.54700
O517        O  0.88861613  0.31602626  0.79033697    -0.58000
In518      In  0.12399325  0.29835838  0.83779949     1.36900
C519        C  0.13194273  0.32585915  0.89275056     0.79700
O520        O  0.06973308  0.32272434  0.83573915    -0.58800
O521        O  0.07311142  0.26680050  0.83808609    -0.49700
C522        C  0.14371174  0.32844752  0.78550465     0.72300
O523        O  0.15447812  0.33932420  0.81072436    -0.44600
C524        C  0.16885979  0.24388303  0.83779535     0.77000
O525        O  0.13297049  0.34438530  0.86920317    -0.56400
O526        O  0.13617863  0.23998473  0.83331362    -0.46500
O527        O  0.12653362  0.29336206  0.88841751    -0.52800
C528        C  0.05336900  0.29361132  0.83693763     0.87200
O529        O  0.12242187  0.30281604  0.78709173    -0.54700
O530        O  0.17839665  0.27546658  0.84215111    -0.58000
In531      In  0.22676844  0.39630847  0.67205635     1.36900
C532        C  0.27460180  0.34475916  0.67240100     0.79700
O533        O  0.22423514  0.39710698  0.72281826    -0.58800
O534        O  0.18225759  0.37204898  0.69951410    -0.49700
C535        C  0.23395693  0.46664779  0.67364998     0.72300
O536        O  0.26010829  0.44595889  0.67461493    -0.44600
C537        C  0.20350976  0.38966682  0.61567599     0.77000
O538        O  0.28356412  0.37694632  0.67459407    -0.56400
O539        O  0.18327972  0.38715876  0.63822372    -0.46500
O540        O  0.24186836  0.33953497  0.67022312    -0.52800
C541        C  0.19588180  0.37961696  0.72464383     0.87200
O542        O  0.20431214  0.45129202  0.67251066    -0.54700
O543        O  0.23539486  0.39580433  0.62183125    -0.58000
In544      In  0.21225219  0.63645955  0.66528770     1.36900
C545        C  0.26384222  0.68416070  0.66727844     0.79700
O546        O  0.22460121  0.63333546  0.61576490    -0.58800
O547        O  0.17246747  0.64730215  0.62918911    -0.49700
C548        C  0.21162039  0.56604037  0.67148453     0.72300
O549        O  0.24010845  0.58340628  0.66946374    -0.44600
C550        C  0.17685958  0.66161164  0.71249343     0.77000
O551        O  0.26943457  0.65199620  0.67358240    -0.56400
O552        O  0.16501254  0.66304399  0.68604134    -0.46500
O553        O  0.23249350  0.69127872  0.66021047    -0.52800
C554        C  0.19387579  0.64199678  0.60790453     0.87200
O555        O  0.18413296  0.58471417  0.67112903    -0.54700
O556        O  0.20616074  0.64592160  0.71497337    -0.58000
In557      In  0.82220625  0.64267731  0.65956640     1.36900
C558        C  0.76871315  0.68781680  0.65845682     0.79700
O559        O  0.82522635  0.65070324  0.70973129    -0.58800
O560        O  0.86591609  0.67276473  0.68261822    -0.49700
C561        C  0.82264285  0.57230146  0.66551655     0.72300
O562        O  0.79434081  0.58975338  0.66336236    -0.44600
C563        C  0.84390100  0.64748418  0.60288456     0.77000
O564        O  0.76447014  0.65578443  0.66586981    -0.56400
O565        O  0.86392631  0.65420944  0.62481174    -0.46500
O566        O  0.79986689  0.69624688  0.65154414    -0.52800
C567        C  0.85312503  0.66904554  0.70864896     0.87200
O568        O  0.85033485  0.59088738  0.66546328    -0.54700
O569        O  0.81308067  0.63784612  0.60983432    -0.58000
In570      In  0.80347178  0.40300373  0.66309825     1.36900
C571        C  0.75601387  0.35123316  0.66040732     0.79700
O572        O  0.80149384  0.40408000  0.61257850    -0.58800
O573        O  0.84998565  0.38978239  0.63354258    -0.49700
C574        C  0.79831786  0.47337553  0.66363108     0.72300
O575        O  0.77187227  0.45340345  0.65975021    -0.44600
C576        C  0.82650405  0.38870235  0.71836085     0.77000
O577        O  0.74702854  0.38284412  0.66589304    -0.56400
O578        O  0.84431079  0.38119378  0.69509737    -0.46500
O579        O  0.78856613  0.34669647  0.65625952    -0.52800
C580        C  0.83311778  0.39430430  0.60936272     0.87200
O581        O  0.82723135  0.45729249  0.66714445    -0.54700
O582        O  0.79773507  0.40423153  0.71326407    -0.58000
In583      In  0.88956496  0.73318732  0.83947105     1.36900
C584        C  0.83725257  0.77976773  0.83682379     0.79700
O585        O  0.88705296  0.72658948  0.78895231    -0.58800
O586        O  0.86645054  0.68553164  0.81645215    -0.49700
C587        C  0.95920712  0.74339763  0.83559576     0.72300
O588        O  0.93758639  0.76872189  0.83710816    -0.44600
C589        C  0.88454027  0.71111728  0.89631912     0.77000
O590        O  0.86890369  0.78864529  0.83161123    -0.56400
O591        O  0.88326312  0.69025366  0.87417752    -0.46500
O592        O  0.83286302  0.74770025  0.84343422    -0.52800
C593        C  0.87153013  0.69700750  0.79018791     0.87200
O594        O  0.94513518  0.71309622  0.83549640    -0.54700
O595        O  0.88898505  0.74320080  0.88959297    -0.58000
In596      In  0.12901029  0.73188691  0.83855100     1.36900
C597        C  0.16680257  0.79110619  0.83390311     0.79700
O598        O  0.12741859  0.74189908  0.88870169    -0.58800
O599        O  0.14421364  0.69152518  0.87297091    -0.49700
C600        C  0.05904332  0.72579569  0.83557260     0.72300
O601        O  0.07442002  0.75549727  0.83593318    -0.44600
C602        C  0.15543294  0.69659582  0.79152619     0.77000
O603        O  0.13427616  0.79055109  0.82780794    -0.56400
O604        O  0.16646325  0.69276039  0.81798172    -0.46500
O605        O  0.17921367  0.76173600  0.84195079    -0.52800
C606        C  0.13832920  0.71138401  0.89517056     0.87200
O607        O  0.07944867  0.69950392  0.83634720    -0.54700
O608        O  0.13041971  0.71842190  0.78889523    -0.58000
C609        C  0.99786044  0.74889357  0.83460076    -0.14300
C610        C  0.02033910  0.72139941  0.83472028    -0.29500
H611        H  0.00794863  0.77585689  0.83463414     0.14700
H612        H  0.01005760  0.69450494  0.83490419     0.15200
C613        C  0.86899844  0.68605381  0.73535867    -0.14300
C614        C  0.85880186  0.67766479  0.76342540    -0.29500
H615        H  0.88889676  0.70643416  0.73181387     0.14700
H616        H  0.83992023  0.65633058  0.76695192     0.15200
C617        C  0.82408486  0.53327143  0.66735181    -0.14300
C618        C  0.79551397  0.51245387  0.66376382    -0.29500
H619        H  0.84988563  0.52128788  0.67056097     0.14700
H620        H  0.76971159  0.52425361  0.66014945     0.15200
C621        C  0.17154949  0.67735186  0.76607104    -0.14300
C622        C  0.15830628  0.67829461  0.73810624    -0.29500
H623        H  0.19552647  0.66247245  0.77047881     0.14700
H624        H  0.13411644  0.69280083  0.73365472     0.15200
C625        C  0.20947570  0.52703473  0.67348169    -0.14300
C626        C  0.23786371  0.50569234  0.67340238    -0.29500
H627        H  0.18316891  0.51544609  0.67436644     0.14700
H628        H  0.26429855  0.51696410  0.67262859     0.15200
C629        C  0.15535858  0.34349267  0.75625640    -0.14300
C630        C  0.18107268  0.36807520  0.75401855    -0.29500
H631        H  0.14377263  0.33253814  0.73590581     0.14700
H632        H  0.19344298  0.37821518  0.77433652     0.15200
C633        C  0.86238741  0.35544102  0.75490353    -0.14300
C634        C  0.83745082  0.37971534  0.74928088    -0.29500
H635        H  0.87568100  0.34229116  0.73628714     0.14700
H636        H  0.82288452  0.39154764  0.76784178     0.15200
C637        C  0.99377460  0.31985558  0.83645798    -0.14300
C638        C  0.01431736  0.29090447  0.83738918    -0.29500
H639        H  0.00597555  0.34585849  0.83476693     0.14700
H640        H  0.00234647  0.26479825  0.83899513     0.15200
C641        C  0.17875132  0.38244279  0.56026518    -0.11200
C642        C  0.19113146  0.38576315  0.58518215    -0.12700
C643        C  0.18379962  0.64566314  0.57698137    -0.11200
C644        C  0.17273999  0.64864571  0.55171336    -0.12700
C645        C  0.13681716  0.46359463  0.50084626    -0.16400
C646        C  0.13711164  0.49538613  0.49958163     0.07600
C647        C  0.13581705  0.53252599  0.49768644     0.09500
C648        C  0.13400987  0.56422337  0.49585678    -0.17300
C649        C  0.86693973  0.65254160  0.54692304    -0.11200
C650        C  0.85540237  0.65048973  0.57218394    -0.12700
C651        C  0.97164839  0.67915461  0.48496133    -0.16400
C652        C  0.00260647  0.68631525  0.48468777     0.07600
C653        C  0.03968483  0.68566607  0.48594485     0.09500
C654        C  0.07029317  0.67760697  0.48796319    -0.17300
C655        C  0.86331519  0.38424482  0.55628273    -0.11200
C656        C  0.84876404  0.38858127  0.58021971    -0.12700
C657        C  0.07122718  0.35102395  0.50330075    -0.16400
C658        C  0.04022846  0.34393776  0.50253072     0.07600
C659        C  0.00307238  0.34441981  0.50153686     0.09500
C660        C  0.97227443  0.35225077  0.50100617    -0.17300
C661        C  0.90853831  0.46593704  0.49820725    -0.16400
C662        C  0.90694058  0.49765792  0.49635026     0.07600
C663        C  0.90597167  0.53479537  0.49395787     0.09500
C664        C  0.90641965  0.56655649  0.49202110    -0.17300
C665        C  0.00170533  0.31984292  0.16808539    -0.14300
C666        C  0.02483657  0.29287972  0.16748946    -0.29500
H667        H  0.01154915  0.34689554  0.16812124     0.14700
H668        H  0.01520118  0.26576633  0.16725441     0.15200
C669        C  0.20188870  0.64488322  0.41984323    -0.11200
C670        C  0.18593900  0.64782061  0.44324415    -0.12700
C671        C  0.16215138  0.34529370  0.24939875    -0.14300
C672        C  0.18744817  0.36978102  0.25392356    -0.29500
H673        H  0.15104699  0.33127922  0.26857381     0.14700
H674        H  0.19943389  0.38290181  0.23466942     0.15200
C675        C  0.22429647  0.50220153  0.33784354    -0.14300
C676        C  0.25290900  0.52305706  0.33568376    -0.29500
H677        H  0.19816958  0.51382535  0.34011390     0.14700
H678        H  0.27910517  0.51155344  0.33362965     0.15200
C679        C  0.18189162  0.37765844  0.44955196    -0.11200
C680        C  0.19452812  0.38021308  0.42461710    -0.12700
C681        C  0.17356899  0.68293071  0.25157740    -0.14300
C682        C  0.19606482  0.65568686  0.25414191    -0.29500
H683        H  0.16626131  0.69812343  0.27143286     0.14700
H684        H  0.20472656  0.64143491  0.23417940     0.15200
C685        C  0.01213401  0.75039414  0.17410057    -0.14300
C686        C  0.03268001  0.72151346  0.17561148    -0.29500
H687        H  0.02402197  0.77652253  0.17229052     0.14700
H688        H  0.02053986  0.69549352  0.17744536     0.15200
C689        C  0.86926967  0.69528509  0.25138961    -0.14300
C690        C  0.84514623  0.66903297  0.25159320    -0.29500
H691        H  0.87775112  0.70716886  0.27246557     0.14700
H692        H  0.83570060  0.65804336  0.23047009     0.15200
C693        C  0.84083825  0.64758042  0.41481312    -0.11200
C694        C  0.85667165  0.65045996  0.43821191    -0.12700
C695        C  0.83999717  0.37074177  0.25684536    -0.14300
C696        C  0.86507465  0.34613164  0.25259324    -0.29500
H697        H  0.82715575  0.38279637  0.23758277     0.14700
H698        H  0.87674301  0.33292170  0.27185125     0.15200
C699        C  0.78158022  0.50097332  0.33691221    -0.14300
C700        C  0.80815507  0.52354789  0.33075500    -0.29500
H701        H  0.75494698  0.51087826  0.34039714     0.14700
H702        H  0.83461654  0.51329779  0.32697824     0.15200
C703        C  0.84576623  0.38337110  0.42400531    -0.11200
C704        C  0.86126897  0.38046005  0.44755237    -0.12700
C705        C  0.14659877  0.68481128  0.94939219    -0.11200
C706        C  0.14316250  0.69942684  0.92549722    -0.12700
C707        C  0.15250651  0.67592454  0.05791217    -0.11200
C708        C  0.15091452  0.68808671  0.08296287    -0.12700
C709        C  0.14053790  0.35622421  0.94591897    -0.11200
C710        C  0.13669376  0.34085489  0.92228004    -0.12700
C711        C  0.14449487  0.36484069  0.05490059    -0.11200
C712        C  0.14242471  0.35157598  0.07959636    -0.12700
C713        C  0.17286369  0.47025257  0.99341065    -0.16400
C714        C  0.18038387  0.50121893  0.99292021     0.07600
C715        C  0.18035100  0.53845480  0.99397995     0.09500
C716        C  0.17329551  0.56943012  0.99586518    -0.17300
C717        C  0.87292616  0.37139323  0.95104026    -0.11200
C718        C  0.87511848  0.35862166  0.92614588    -0.12700
C719        C  0.87225429  0.36588876  0.06056738    -0.11200
C720        C  0.87531705  0.35086189  0.08437281    -0.12700
C721        C  0.05884806  0.40753731  0.99999395    -0.16400
C722        C  0.02706539  0.40755034  0.00157812     0.07600
C723        C  0.98990927  0.40888967  0.00384714     0.09500
C724        C  0.95822061  0.41098446  0.00577267    -0.17300
C725        C  0.88099545  0.69906793  0.92693232    -0.11200
C726        C  0.87811472  0.68653415  0.95183996    -0.12700
C727        C  0.88293004  0.68901449  0.06213815    -0.11200
C728        C  0.88803884  0.70290961  0.08628837    -0.12700
C729        C  0.06337662  0.63893076  0.00402356    -0.16400
C730        C  0.03168833  0.64138760  0.00447411     0.07600
C731        C  0.99451871  0.64268306  0.00483844     0.09500
C732        C  0.96273769  0.64232673  0.00530962    -0.17300
C733        C  0.84900860  0.57869867  0.00941795    -0.16400
C734        C  0.84115623  0.54779119  0.00976694     0.07600
C735        C  0.84055443  0.51051381  0.00987897     0.09500
C736        C  0.84734742  0.47939247  0.00964246    -0.17300
C737        C  0.80923312  0.20936510  0.83703017    -0.14300
C738        C  0.80465859  0.24437536  0.84043331    -0.29500
H739        H  0.83560494  0.19858386  0.83402542     0.14700
H740        H  0.77811661  0.25489199  0.84311093     0.15200
C741        C  0.80698106  0.80397490  0.83541843    -0.14300
C742        C  0.80986087  0.83890906  0.83048771    -0.29500
H743        H  0.78102565  0.79224132  0.83889878     0.14700
H744        H  0.83562158  0.85110949  0.82725387     0.15200
C745        C  0.70674308  0.00905468  0.82591629    -0.14300
C746        C  0.73419965  0.03169686  0.82589152    -0.29500
H747        H  0.67992583  0.01919543  0.82712497     0.14700
H748        H  0.76099269  0.02150227  0.82455146     0.15200
C749        C  0.70664735  0.70669036  0.66509110    -0.14300
C750        C  0.74029628  0.71420674  0.65801009    -0.29500
H751        H  0.69886106  0.67984581  0.67089403     0.14700
H752        H  0.74765615  0.74109795  0.65191323     0.15200
C753        C  0.65796686  0.83406419  0.74654186    -0.14300
C754        C  0.68064157  0.86144362  0.74798411    -0.29500
H755        H  0.64759530  0.82243262  0.76711076     0.14700
H756        H  0.69186140  0.87228511  0.72742350     0.15200
C757        C  0.32544278  0.70682174  0.67221852    -0.14300
C758        C  0.29080570  0.71223600  0.66770396    -0.29500
H759        H  0.33551171  0.68034712  0.67628880     0.14700
H760        H  0.28136514  0.73890581  0.66334994     0.15200
C761        C  0.52350523  0.77273393  0.66879129    -0.14300
C762        C  0.50171539  0.80068791  0.66914619    -0.29500
H763        H  0.51286972  0.74598775  0.66896715     0.14700
H764        H  0.51256132  0.82735880  0.66883033     0.15200
C765        C  0.69783944  0.32216518  0.66822927    -0.14300
C766        C  0.73143273  0.32112907  0.65859192    -0.29500
H767        H  0.68704260  0.34625857  0.67794367     0.14700
H768        H  0.74213141  0.29650062  0.64978556     0.15200
C769        C  0.67960152  0.17900554  0.73665942    -0.14300
C770        C  0.66940401  0.18389260  0.76543356    -0.29500
H771        H  0.70148187  0.16131368  0.73173095     0.14700
H772        H  0.64746114  0.20147084  0.77045218     0.15200
C773        C  0.29931516  0.31468120  0.67202640    -0.14300
C774        C  0.33461649  0.31764409  0.67400703    -0.29500
H775        H  0.28748077  0.28857647  0.66965634     0.14700
H776        H  0.34698307  0.34347215  0.67644766     0.15200
C777        C  0.52694339  0.24235271  0.66652069    -0.14300
C778        C  0.50474829  0.21478456  0.66927193    -0.29500
H779        H  0.51646071  0.26894741  0.66402934     0.14700
H780        H  0.51512121  0.18809148  0.67132130     0.15200
C781        C  0.22868158  0.21899997  0.84190574    -0.14300
C782        C  0.19384324  0.21386863  0.83793173    -0.29500
H783        H  0.23885179  0.24568493  0.84504248     0.14700
H784        H  0.18350672  0.18729859  0.83456044     0.15200
C785        C  0.34263306  0.16247583  0.75663256    -0.14300
C786        C  0.36884665  0.18600501  0.75253594    -0.29500
H787        H  0.32867998  0.15176113  0.73730303     0.14700
H788        H  0.38203901  0.19746388  0.77194611     0.15200
C789        C  0.22336226  0.82080032  0.83922600    -0.14300
C790        C  0.18908641  0.82317073  0.83195459    -0.29500
H791        H  0.23396515  0.79546864  0.84644717     0.14700
H792        H  0.17782628  0.84804531  0.82442071     0.15200
C793        C  0.33859499  0.86367584  0.75271407    -0.14300
C794        C  0.36349933  0.83844486  0.75082915    -0.29500
H795        H  0.32584894  0.87330696  0.73244394     0.14700
H796        H  0.37532916  0.82795031  0.77119259     0.15200
C797        C  0.31067442  0.00681017  0.83413732    -0.14300
C798        C  0.28431763  0.03009253  0.83830458    -0.29500
H799        H  0.33759322  0.01648550  0.83162111     0.14700
H800        H  0.25735690  0.02070902  0.84117338     0.15200
C801        C  0.37349077  0.17595022  0.55977536    -0.11200
C802        C  0.37699994  0.19024492  0.58393217    -0.12700
C803        C  0.64515352  0.17459243  0.55398273    -0.11200
C804        C  0.64363142  0.19001034  0.57784755    -0.12700
C805        C  0.45720307  0.12731224  0.50665044    -0.16400
C806        C  0.48899092  0.12795778  0.50607252     0.07600
C807        C  0.52619021  0.12730708  0.50537804     0.09500
C808        C  0.55794391  0.12581238  0.50471344    -0.17300
C809        C  0.37260579  0.84990924  0.56270385    -0.11200
C810        C  0.37613541  0.83408492  0.58600668    -0.12700
C811        C  0.34424983  0.06238085  0.51084020    -0.16400
C812        C  0.33678956  0.03144609  0.51199812     0.07600
C813        C  0.33690987  0.99423552  0.51272072     0.09500
C814        C  0.34450073  0.96333424  0.51266948    -0.17300
C815        C  0.64354866  0.84703377  0.55852295    -0.11200
C816        C  0.64146350  0.83072800  0.58181046    -0.12700
C817        C  0.67082099  0.96102882  0.50795882    -0.16400
C818        C  0.67816650  0.99204153  0.50730444     0.07600
C819        C  0.67797063  0.02926431  0.50574608     0.09500
C820        C  0.67043231  0.06016211  0.50431524    -0.17300
C821        C  0.55789106  0.89588330  0.50684626    -0.16400
C822        C  0.52610625  0.89528918  0.50729159     0.07600
C823        C  0.48893584  0.89621114  0.50827378     0.09500
C824        C  0.45722438  0.89803355  0.50931023    -0.17300
C825        C  0.69533196  0.31106687  0.33697487    -0.14300
C826        C  0.73032855  0.30811121  0.34091026    -0.29500
H827        H  0.68339696  0.33700662  0.33429371     0.14700
H828        H  0.74214866  0.28206542  0.34328559     0.15200
C829        C  0.63861542  0.18082955  0.42061060    -0.11200
C830        C  0.64087038  0.16706156  0.44507510    -0.12700
C831        C  0.31741747  0.32763637  0.33857484    -0.14300
C832        C  0.31266042  0.29257587  0.34134428    -0.29500
H833        H  0.34382398  0.33866954  0.33628553     0.14700
H834        H  0.28601368  0.28209223  0.34368565     0.15200
C835        C  0.49851196  0.20659099  0.33431596    -0.14300
C836        C  0.52084981  0.23421162  0.33322964    -0.29500
H837        H  0.50896260  0.17981333  0.33461893     0.14700
H838        H  0.51049103  0.26101978  0.33307880     0.15200
C839        C  0.37661862  0.17954681  0.42486818    -0.11200
C840        C  0.37347360  0.16754833  0.44991538    -0.12700
C841        C  0.82349221  0.19422649  0.17030547    -0.14300
C842        C  0.81795458  0.22885835  0.16545232    -0.29500
H843        H  0.85002749  0.18441438  0.17430043     0.14700
H844        H  0.79117121  0.23813920  0.16162402     0.15200
C845        C  0.69215163  0.15425471  0.25367331    -0.14300
C846        C  0.66467972  0.17682085  0.25535424    -0.29500
H847        H  0.70492121  0.14542596  0.27419675     0.14700
H848        H  0.65227143  0.18596858  0.23477173     0.15200
C849        C  0.82818784  0.82166359  0.17256399    -0.14300
C850        C  0.79461565  0.81393279  0.16538311    -0.29500
H851        H  0.83587371  0.84864234  0.17805222     0.14700
H852        H  0.78742698  0.78689243  0.15956285     0.15200
C853        C  0.71236123  0.99502911  0.16886651    -0.14300
C854        C  0.74172248  0.01485562  0.17138730    -0.29500
H855        H  0.68664913  0.00776307  0.16816596     0.14700
H856        H  0.76749660  0.00225064  0.17201732     0.15200
C857        C  0.31868021  0.73834324  0.33652436    -0.14300
C858        C  0.32556224  0.70371165  0.33357993    -0.29500
H859        H  0.29148069  0.74726575  0.33858931     0.14700
H860        H  0.35261839  0.69439619  0.33160268     0.15200
C861        C  0.37914509  0.84533575  0.42915708    -0.11200
C862        C  0.37447419  0.85680517  0.45412442    -0.12700
C863        C  0.71340501  0.73092850  0.33723026    -0.14300
C864        C  0.71010127  0.69639313  0.33054968    -0.29500
H865        H  0.73933681  0.74178108  0.34235273     0.14700
H866        H  0.68436157  0.68510650  0.32548114     0.15200
C867        C  0.65899238  0.84676496  0.23532826    -0.14300
C868        C  0.66617154  0.85740791  0.26349637    -0.29500
H869        H  0.64043525  0.82522977  0.23150996     0.14700
H870        H  0.68413143  0.87947174  0.26722287     0.15200
C871        C  0.52349827  0.79204241  0.33417597    -0.14300
C872        C  0.50239859  0.82061380  0.33413120    -0.29500
H873        H  0.51214536  0.76559834  0.33475058     0.14700
H874        H  0.51407471  0.84693558  0.33398884     0.15200
C875        C  0.63937935  0.83997269  0.42574817    -0.11200
C876        C  0.64196369  0.85315414  0.45035246    -0.12700
C877        C  0.21446966  0.23588570  0.16069504    -0.14300
C878        C  0.20992174  0.20094332  0.16438951    -0.29500
H879        H  0.24092321  0.24658681  0.15760952     0.14700
H880        H  0.18354102  0.19004071  0.16735708     0.15200
C881        C  0.33713581  0.15430036  0.24969284    -0.14300
C882        C  0.36066265  0.18042019  0.25422376    -0.29500
H883        H  0.32655633  0.13971943  0.26877992     0.14700
H884        H  0.37047682  0.19557803  0.23516825     0.15200
C885        C  0.21907184  0.83058262  0.17205924    -0.14300
C886        C  0.22178541  0.79591509  0.16591315    -0.29500
H887        H  0.19398231  0.84193550  0.17901115     0.14700
H888        H  0.24723191  0.78496003  0.15938282     0.15200
C889        C  0.36071539  0.85522064  0.23866112    -0.14300
C890        C  0.35756892  0.86964881  0.26614291    -0.29500
H891        H  0.37611389  0.83123545  0.23550681     0.14700
H892        H  0.34234927  0.89373652  0.26935993     0.15200
C893        C  0.31388434  0.00231578  0.16728763    -0.14300
C894        C  0.28539442  0.02332477  0.16621119    -0.29500
H895        H  0.34018058  0.01389289  0.16822759     0.14700
H896        H  0.25903350  0.01189255  0.16537462     0.15200
C897        C  0.34983657  0.14823740  0.92454155    -0.11200
C898        C  0.36387187  0.15057636  0.94892992    -0.12700
C899        C  0.34208406  0.14375586  0.08232649    -0.11200
C900        C  0.35778546  0.14619452  0.05863801    -0.12700
C901        C  0.69236363  0.14505189  0.92724144    -0.11200
C902        C  0.68037598  0.14690535  0.95250780    -0.12700
C903        C  0.68339829  0.14082699  0.06262472    -0.11200
C904        C  0.69774674  0.13752584  0.08676162    -0.12700
C905        C  0.47227096  0.17162899  0.00888647    -0.16400
C906        C  0.50340664  0.17837302  0.01027451     0.07600
C907        C  0.54071434  0.17875082  0.01112022     0.09500
C908        C  0.57189273  0.17215507  0.01095054    -0.17300
C909        C  0.67034471  0.87597248  0.93853599    -0.11200
C910        C  0.68335253  0.88066970  0.91406316    -0.12700
C911        C  0.68385874  0.87827319  0.07299514    -0.11200
C912        C  0.67131825  0.87565688  0.04818569    -0.12700
C913        C  0.62806227  0.95974225  0.99477369    -0.16400
C914        C  0.63162079  0.99133849  0.99665390     0.07600
C915        C  0.63524925  0.02828696  0.99972479     0.09500
C916        C  0.63654580  0.05994289  0.00264448    -0.17300
C917        C  0.35163570  0.87774976  0.94367725    -0.11200
C918        C  0.33765260  0.88189502  0.91962617    -0.12700
C919        C  0.35435035  0.87725997  0.05266785    -0.11200
C920        C  0.34136194  0.88041403  0.07732345    -0.12700
C921        C  0.40144749  0.06214703  0.00086391    -0.16400
C922        C  0.39923591  0.03040498  0.99906867     0.07600
C923        C  0.39837590  0.99312623  0.99765459     0.09500
C924        C  0.39898531  0.96125660  0.99709776    -0.17300
C925        C  0.46242430  0.84729448  0.99572817    -0.16400
C926        C  0.49322646  0.83953261  0.99524823     0.07600
C927        C  0.53037794  0.83951177  0.99476088     0.09500
C928        C  0.56125242  0.84712449  0.99435055    -0.17300
loop_ 
_geom_bond_atom_site_label_1 
_geom_bond_atom_site_label_2 
_geom_bond_distance 
_geom_bond_site_symmetry_2 
_ccdc_geom_bond_type 
C1            C2   1.529       .  S
C1            C7   1.529   1_556  S
C1            C5   1.537       .  S
C1          C925   1.463       .  S
C2            H9   1.087       .  S
C2            C3   1.364       .  D
C3            C4   1.540       .  S
C3          C917   1.439       .  S
C4            C8   1.541   1_556  S
C4            C6   1.532       .  S
C4           H10   1.112       .  S
C5           H11   1.087       .  S
C5            C6   1.361       .  D
C6          C924   1.439       .  S
C7           H12   1.087       .  S
C7            C8   1.364       .  D
C8          C919   1.440       .  S
C13          C14   1.528   1_556  S
C13          C19   1.529       .  S
C13          C17   1.539       .  S
C13         C928   1.463       .  S
C14          H21   1.087       .  S
C14          C15   1.363       .  D
C15          C16   1.540   1_554  S
C15         C912   1.440       .  S
C16          C20   1.541       .  S
C16          C18   1.530       .  S
C16          H22   1.112       .  S
C17          H23   1.087       .  S
C17          C18   1.362       .  D
C18         C913   1.438       .  S
C19          H24   1.087       .  S
C19          C20   1.364       .  D
C20         C909   1.440       .  S
C25          C26   1.532   1_554  S
C25          C31   1.530       .  S
C25          C29   1.533       .  S
C25         C908   1.469       .  S
C26          H33   1.087       .  S
C26          C27   1.366       .  D
C27          C28   1.546   1_556  S
C27         C902   1.450       .  S
C28          C32   1.548       .  S
C28          C30   1.534       .  S
C28          H34   1.111       .  S
C29          H35   1.087       .  S
C29          C30   1.359       .  D
C30         C916   1.437       .  S
C31          H36   1.087       .  S
C31          C32   1.365       .  D
C32         C903   1.449       .  S
C37          C38   1.530       .  S
C37          C43   1.533   1_554  S
C37          C41   1.536       .  S
C37         C905   1.469       .  S
C38          H45   1.087       .  S
C38          C39   1.364       .  D
C39          C40   1.546       .  S
C39         C900   1.449       .  S
C40          C44   1.545   1_554  S
C40          C42   1.532       .  S
C40          H46   1.111       .  S
C41          H47   1.087       .  S
C41          C42   1.361       .  D
C42         C921   1.439       .  S
C43          H48   1.087       .  S
C43          C44   1.366       .  D
C44         C898   1.450       .  S
In49         O51   2.251       .  S
In49         O52   2.242       .  S
In49         O60   2.234       .  S
In49         O54   2.247       .  S
In49         O56   2.265       .  S
In49         O57   2.242       .  S
In49         O58   2.220       .  S
In49         O61   2.249       .  S
C50          O56   1.261       .  A
C50          O58   1.259       .  A
C50         C885   1.474       .  S
O51          C59   1.259       .  A
O52          C59   1.259       .  A
C53          O60   1.259       .  A
C53          O54   1.263       .  A
C53         C893   1.470   1_565  S
C55          O57   1.258       .  A
C55          O61   1.261       .  A
C55         C889   1.470       .  S
C59         C920   1.434       .  S
In62         O64   2.237       .  S
In62         O65   2.244       .  S
In62         O73   2.256       .  S
In62         O67   2.264       .  S
In62         O69   2.260       .  S
In62         O70   2.253       .  S
In62         O71   2.260       .  S
In62         O74   2.247       .  S
C63          O69   1.260       .  A
C63          O71   1.258       .  A
C63         C899   1.443       .  S
O64          C72   1.262       .  A
O65          C72   1.260       .  A
C66          O73   1.258       .  A
C66          O67   1.261       .  A
C66         C881   1.478       .  S
C68          O70   1.258       .  A
C68          O74   1.260       .  A
C68         C878   1.474       .  S
C72         C894   1.472       .  S
In75         O77   2.254       .  S
In75         O78   2.242       .  S
In75         O86   2.239       .  S
In75         O80   2.262       .  S
In75         O82   2.266       .  S
In75         O83   2.240       .  S
In75         O84   2.226       .  S
In75         O87   2.249       .  S
C76          O82   1.263       .  A
C76          O84   1.257       .  A
C76         C863   1.470       .  S
O77          C85   1.262       .  A
O78          C85   1.259       .  A
C79          O86   1.261       .  A
C79          O80   1.262       .  A
C79         C871   1.478       .  S
C81          O83   1.259       .  A
C81          O87   1.259       .  A
C81         C875   1.433       .  S
C85         C868   1.474       .  S
In88         O90   2.246       .  S
In88         O91   2.236       .  S
In88         O99   2.233       .  S
In88         O93   2.264       .  S
In88         O95   2.261       .  S
In88         O96   2.244       .  S
In88         O97   2.221       .  S
In88        O100   2.233       .  S
C89          O95   1.264       .  A
C89          O97   1.257       .  A
C89         C857   1.468       .  S
O90          C98   1.259       .  A
O91          C98   1.259       .  A
C92          O99   1.259       .  A
C92          O93   1.263       .  A
C92         C872   1.474       .  S
C94          O96   1.261       .  A
C94         O100   1.262       .  A
C94         C890   1.471       .  S
C98         C861   1.431       .  S
In101       O103   2.239       .  S
In101       O104   2.256       .  S
In101       O112   2.250       .  S
In101       O106   2.252       .  S
In101       O108   2.239       .  S
In101       O109   2.262       .  S
In101       O110   2.252       .  S
In101       O113   2.226       .  S
C102        O108   1.260       .  A
C102        O110   1.259       .  A
C102        C911   1.435       .  S
O103        C111   1.260       .  A
O104        C111   1.263       .  A
C105        O112   1.261       .  A
C105        O106   1.260       .  A
C105        C867   1.475       .  S
C107        O109   1.263       .  A
C107        O113   1.257       .  A
C107        C850   1.469       .  S
C111        C853   1.475       .  S
In114       O116   2.259       .  S
In114       O117   2.257       .  S
In114       O125   2.251       .  S
In114       O119   2.254       .  S
In114       O121   2.272       .  S
In114       O122   2.267       .  S
In114       O123   2.242       .  S
In114       O126   2.267       .  S
C115        O121   1.260       .  A
C115        O123   1.260       .  A
C115        C841   1.481       .  S
O116        C124   1.259       .  A
O117        C124   1.261       .  A
C118        O125   1.262       .  A
C118        O119   1.260       .  A
C118        C854   1.477       .  S
C120        O122   1.261       .  A
C120        O126   1.260       .  A
C120        C845   1.485       .  S
C124        C904   1.443       .  S
In127       O129   2.238       .  S
In127       O130   2.257       .  S
In127       O138   2.233       .  S
In127       O132   2.262       .  S
In127       O134   2.271       .  S
In127       O135   2.247       .  S
In127       O136   2.213       .  S
In127       O139   2.242       .  S
C128        O134   1.268       .  A
C128        O136   1.259       .  A
C128        C832   1.471       .  S
O129        C137   1.261       .  A
O130        C137   1.265       .  A
C131        O138   1.260       .  A
C131        O132   1.267       .  A
C131        C835   1.478       .  S
C133        O135   1.264       .  A
C133        O139   1.261       .  A
C133        C839   1.439       .  S
C137        C882   1.477       .  S
In140       O142   2.258       .  S
In140       O143   2.261       .  S
In140       O151   2.261       .  S
In140       O145   2.248       .  S
In140       O147   2.255       .  S
In140       O148   2.273       .  S
In140       O149   2.249       .  S
In140       O152   2.262       .  S
C141        O147   1.258       .  A
C141        O149   1.260       .  A
C141        C825   1.475       .  S
O142        C150   1.257       .  A
O143        C150   1.260       .  A
C144        O151   1.263       .  A
C144        O145   1.259       .  A
C144        C836   1.479       .  S
C146        O148   1.260       .  A
C146        O152   1.259       .  A
C146        C846   1.484       .  S
C150        C829   1.441       .  S
C153        C154   1.529       .  S
C153        C159   1.532       .  S
C153        C157   1.536       .  S
C153        C817   1.464       .  S
C154        H161   1.087       .  S
C154        C155   1.363       .  D
C155        C156   1.540       .  S
C155        C876   1.439       .  S
C156        C160   1.541       .  S
C156        C158   1.532       .  S
C156        H162   1.112       .  S
C157        H163   1.087       .  S
C157        C158   1.361       .  D
C158        C821   1.437       .  S
C159        H164   1.087       .  S
C159        C160   1.366       .  D
C160        C815   1.444       .  S
C165        C166   1.530       .  S
C165        C171   1.529       .  S
C165        C169   1.537       .  S
C165        C814   1.463       .  S
C166        H173   1.087       .  S
C166        C167   1.365       .  D
C167        C168   1.538       .  S
C167        C809   1.439       .  S
C168        C172   1.537       .  S
C168        C170   1.530       .  S
C168        H174   1.112       .  S
C169        H175   1.087       .  S
C169        C170   1.361       .  D
C170        C824   1.436       .  S
C171        H176   1.087       .  S
C171        C172   1.364       .  D
C172        C862   1.436       .  S
C177        C178   1.531       .  S
C177        C183   1.531       .  S
C177        C181   1.536       .  S
C177        C820   1.465       .  S
C178        H185   1.087       .  S
C178        C179   1.365       .  D
C179        C180   1.544       .  S
C179        C803   1.448       .  S
C180        C184   1.544       .  S
C180        C182   1.533       .  S
C180        H186   1.111       .  S
C181        H187   1.087       .  S
C181        C182   1.361       .  D
C182        C808   1.437       .  S
C183        H188   1.087       .  S
C183        C184   1.365       .  D
C184        C830   1.447       .  S
C189        C190   1.529       .  S
C189        C195   1.528       .  S
C189        C193   1.536       .  S
C189        C811   1.462       .  S
C190        H197   1.087       .  S
C190        C191   1.364       .  D
C191        C192   1.544       .  S
C191        C840   1.444       .  S
C192        C196   1.545       .  S
C192        C194   1.533       .  S
C192        H198   1.111       .  S
C193        H199   1.087       .  S
C193        C194   1.361       .  D
C194        C805   1.437       .  S
C195        H200   1.087       .  S
C195        C196   1.364       .  D
C196        C801   1.445       .  S
In201       O203   2.228       .  S
In201       O204   2.271       .  S
In201       O212   2.248       .  S
In201       O206   2.243       .  S
In201       O208   2.235       .  S
In201       O209   2.277       .  S
In201       O210   2.242       .  S
In201       O213   2.198       .  S
C202        O208   1.262       .  A
C202        O210   1.261       .  A
C202        C918   1.433       .  S
O203        C211   1.260       .  A
O204        C211   1.267       .  A
C205        O212   1.262       .  A
C205        O206   1.262       .  A
C205        C793   1.475       .  S
C207        O209   1.268       .  A
C207        O213   1.256       .  A
C207        C789   1.466       .  S
C211        C797   1.478   1_565  S
In214       O216   2.256       .  S
In214       O217   2.266       .  S
In214       O225   2.252       .  S
In214       O219   2.255       .  S
In214       O221   2.262       .  S
In214       O222   2.261       .  S
In214       O223   2.243       .  S
In214       O226   2.250       .  S
C215        O221   1.262       .  A
C215        O223   1.258       .  A
C215        C781   1.475       .  S
O216        C224   1.258       .  A
O217        C224   1.262       .  A
C218        O225   1.263       .  A
C218        O219   1.261       .  A
C218        C798   1.481       .  S
C220        O222   1.263       .  A
C220        O226   1.258       .  A
C220        C785   1.478       .  S
C224        C897   1.445       .  S
In227       O229   2.253       .  S
In227       O230   2.252       .  S
In227       O238   2.245       .  S
In227       O232   2.247       .  S
In227       O234   2.268       .  S
In227       O235   2.261       .  S
In227       O236   2.231       .  S
In227       O239   2.240       .  S
C228        O234   1.262       .  A
C228        O236   1.261       .  A
C228        C774   1.480       .  S
O229        C237   1.259       .  A
O230        C237   1.261       .  A
C231        O238   1.260       .  A
C231        O232   1.263       .  A
C231        C778   1.475       .  S
C233        O235   1.264       .  A
C233        O239   1.259       .  A
C233        C786   1.477       .  S
C237        C802   1.439       .  S
In240       O242   2.259       .  S
In240       O243   2.243       .  S
In240       O251   2.276       .  S
In240       O245   2.258       .  S
In240       O247   2.256       .  S
In240       O248   2.261       .  S
In240       O249   2.267       .  S
In240       O252   2.233       .  S
C241        O247   1.259       .  A
C241        O249   1.259       .  A
C241        C804   1.443       .  S
O242        C250   1.261       .  A
O243        C250   1.258       .  A
C244        O251   1.261       .  A
C244        O245   1.259       .  A
C244        C769   1.484       .  S
C246        O248   1.260       .  A
C246        O252   1.261       .  A
C246        C765   1.476       .  S
C250        C777   1.474       .  S
In253       O255   2.250       .  S
In253       O256   2.247       .  S
In253       O264   2.232       .  S
In253       O258   2.256       .  S
In253       O260   2.269       .  S
In253       O261   2.235       .  S
In253       O262   2.220       .  S
In253       O265   2.253       .  S
C254        O260   1.262       .  A
C254        O262   1.259       .  A
C254        C757   1.477       .  S
O255        C263   1.260       .  A
O256        C263   1.260       .  A
C257        O264   1.258       .  A
C257        O258   1.263       .  A
C257        C762   1.470       .  S
C259        O261   1.259       .  A
C259        O265   1.260       .  A
C259        C810   1.433       .  S
C263        C794   1.474       .  S
In266       O268   2.260       .  S
In266       O269   2.246       .  S
In266       O277   2.237       .  S
In266       O271   2.250       .  S
In266       O273   2.256       .  S
In266       O274   2.255       .  S
In266       O275   2.230       .  S
In266       O278   2.252       .  S
C267        O273   1.260       .  A
C267        O275   1.260       .  A
C267        C749   1.472       .  S
O268        C276   1.259       .  A
O269        C276   1.259       .  A
C270        O277   1.261       .  A
C270        O271   1.260       .  A
C270        C761   1.473       .  S
C272        O274   1.259       .  A
C272        O278   1.260       .  A
C272        C753   1.476       .  S
C276        C816   1.438       .  S
In279       O281   2.249       .  S
In279       O282   2.247       .  S
In279       O290   2.252       .  S
In279       O284   2.256       .  S
In279       O286   2.264       .  S
In279       O287   2.255       .  S
In279       O288   2.224       .  S
In279       O291   2.247       .  S
C280        O286   1.262       .  A
C280        O288   1.259       .  A
C280        C742   1.475       .  S
O281        C289   1.259       .  A
O282        C289   1.260       .  A
C283        O290   1.260       .  A
C283        O284   1.263       .  A
C283        C745   1.479   1_565  S
C285        O287   1.261       .  A
C285        O291   1.260       .  A
C285        C754   1.475       .  S
C289        C910   1.435       .  S
In292       O294   2.269       .  S
In292       O295   2.252       .  S
In292       O303   2.269       .  S
In292       O297   2.267       .  S
In292       O299   2.265       .  S
In292       O300   2.258       .  S
In292       O301   2.269       .  S
In292       O304   2.245       .  S
C293        O299   1.260       .  A
C293        O301   1.257       .  A
C293        C901   1.445       .  S
O294        C302   1.262       .  A
O295        C302   1.258       .  A
C296        O303   1.261       .  A
C296        O297   1.260       .  A
C296        C770   1.485       .  S
C298        O300   1.260       .  A
C298        O304   1.261       .  A
C298        C737   1.478       .  S
C302        C746   1.479       .  S
C305        C306   1.530   1_554  S
C305        C311   1.531       .  S
C305        C309   1.536       .  S
C305        C733   1.465       .  S
C306        H313   1.087       .  S
C306        C307   1.364       .  D
C307        C308   1.544   1_556  S
C307        C726   1.446       .  S
C308        C312   1.544       .  S
C308        C310   1.531       .  S
C308        H314   1.111       .  S
C309        H315   1.087       .  S
C309        C310   1.361       .  D
C310        C732   1.436       .  S
C311        H316   1.087       .  S
C311        C312   1.366       .  D
C312        C727   1.447       .  S
C317        C318   1.529       .  S
C317        C323   1.529   1_554  S
C317        C321   1.537       .  S
C317        C736   1.465       .  S
C318        H325   1.087       .  S
C318        C319   1.364       .  D
C319        C320   1.545       .  S
C319        C719   1.444       .  S
C320        C324   1.543   1_554  S
C320        C322   1.533       .  S
C320        H326   1.112       .  S
C321        H327   1.087       .  S
C321        C322   1.361       .  D
C322        C724   1.440       .  S
C323        H328   1.087       .  S
C323        C324   1.364       .  D
C324        C717   1.445       .  S
C329        C330   1.530       .  S
C329        C335   1.531   1_556  S
C329        C333   1.536       .  S
C329        C713   1.464       .  S
C330        H337   1.087       .  S
C330        C331   1.365       .  D
C331        C332   1.544   1_556  S
C331        C709   1.445       .  S
C332        C336   1.544       .  S
C332        C334   1.533   1_554  S
C332        H338   1.111       .  S
C333        H339   1.087       .  S
C333        C334   1.360       .  D
C334        C721   1.439       .  S
C335        H340   1.087       .  S
C335        C336   1.364       .  D
C336        C711   1.447       .  S
C341        C342   1.529   1_556  S
C341        C347   1.529       .  S
C341        C345   1.536   1_556  S
C341        C716   1.464       .  S
C342        H349   1.087       .  S
C342        C343   1.364       .  D
C343        C344   1.540       .  S
C343        C707   1.439       .  S
C344        C348   1.540   1_554  S
C344        C346   1.532       .  S
C344        H350   1.112       .  S
C345        H351   1.087   1_554  S
C345        C346   1.362       .  D
C346        C729   1.437       .  S
C347        H352   1.087       .  S
C347        C348   1.364       .  D
C348        C705   1.440       .  S
In353       O355   2.239       .  S
In353       O356   2.258       .  S
In353       O364   2.245       .  S
In353       O358   2.252       .  S
In353       O360   2.247       .  S
In353       O361   2.259       .  S
In353       O362   2.251       .  S
In353       O365   2.233       .  S
C354        O360   1.261       .  A
C354        O362   1.259       .  A
C354        C703   1.437       .  S
O355        C363   1.262       .  A
O356        C363   1.263       .  A
C357        O364   1.259       .  A
C357        O358   1.262       .  A
C357        C695   1.474       .  S
C359        O361   1.264       .  A
C359        O365   1.258       .  A
C359        C826   1.472       .  S
C363        C699   1.479       .  S
In366       O368   2.255       .  S
In366       O369   2.245       .  S
In366       O377   2.240       .  S
In366       O371   2.268       .  S
In366       O373   2.269       .  S
In366       O374   2.248       .  S
In366       O375   2.228       .  S
In366       O378   2.258       .  S
C367        O373   1.262       .  A
C367        O375   1.259       .  A
C367        C864   1.476       .  S
O368        C376   1.258       .  A
O369        C376   1.259       .  A
C370        O377   1.259       .  A
C370        O371   1.262       .  A
C370        C700   1.476       .  S
C372        O374   1.261       .  A
C372        O378   1.262       .  A
C372        C690   1.478       .  S
C376        C693   1.436       .  S
In379       O381   2.262       .  S
In379       O382   2.252       .  S
In379       O390   2.246       .  S
In379       O384   2.259       .  S
In379       O386   2.263       .  S
In379       O387   2.255       .  S
In379       O388   2.224       .  S
In379       O391   2.258       .  S
C380        O386   1.261       .  A
C380        O388   1.259       .  A
C380        C849   1.474       .  S
O381        C389   1.259       .  A
O382        C389   1.260       .  A
C383        O390   1.261       .  A
C383        O384   1.260       .  A
C383        C685   1.478   1_655  S
C385        O387   1.260       .  A
C385        O391   1.260       .  A
C385        C689   1.478       .  S
C389        C728   1.442       .  S
In392       O394   2.231       .  S
In392       O395   2.259       .  S
In392       O403   2.232       .  S
In392       O397   2.253       .  S
In392       O399   2.242       .  S
In392       O400   2.260       .  S
In392       O401   2.239       .  S
In392       O404   2.210       .  S
C393        O399   1.263       .  A
C393        O401   1.260       .  A
C393        C708   1.434       .  S
O394        C402   1.260       .  A
O395        C402   1.265       .  A
C396        O403   1.261       .  A
C396        O397   1.265       .  A
C396        C681   1.474       .  S
C398        O400   1.267       .  A
C398        O404   1.259       .  A
C398        C886   1.467       .  S
C402        C686   1.474       .  S
In405       O407   2.249       .  S
In405       O408   2.258       .  S
In405       O416   2.232       .  S
In405       O410   2.238       .  S
In405       O412   2.264       .  S
In405       O413   2.276       .  S
In405       O414   2.229       .  S
In405       O417   2.252       .  S
C406        O412   1.261       .  A
C406        O414   1.261       .  A
C406        C831   1.478       .  S
O407        C415   1.258       .  A
O408        C415   1.263       .  A
C409        O416   1.261       .  A
C409        O410   1.264       .  A
C409        C675   1.467       .  S
C411        O413   1.264       .  A
C411        O417   1.259       .  A
C411        C672   1.484       .  S
C415        C680   1.441       .  S
In418       O420   2.229       .  S
In418       O421   2.244       .  S
In418       O429   2.254       .  S
In418       O423   2.252       .  S
In418       O425   2.243       .  S
In418       O426   2.255       .  S
In418       O427   2.254       .  S
In418       O430   2.225       .  S
C419        O425   1.260       .  A
C419        O427   1.259       .  A
C419        C669   1.435       .  S
O420        C428   1.261       .  A
O421        C428   1.260       .  A
C422        O429   1.258       .  A
C422        O423   1.261       .  A
C422        C682   1.476       .  S
C424        O426   1.261       .  A
C424        O430   1.261       .  A
C424        C858   1.473       .  S
C428        C676   1.469       .  S
In431       O433   2.238       .  S
In431       O434   2.275       .  S
In431       O442   2.245       .  S
In431       O436   2.253       .  S
In431       O438   2.243       .  S
In431       O439   2.280       .  S
In431       O440   2.246       .  S
In431       O443   2.221       .  S
C432        O438   1.263       .  A
C432        O440   1.261       .  A
C432        C720   1.438       .  S
O433        C441   1.259       .  A
O434        C441   1.266       .  A
C435        O442   1.260       .  A
C435        O436   1.263       .  A
C435        C696   1.475       .  S
C437        O439   1.267       .  A
C437        O443   1.257       .  A
C437        C842   1.475       .  S
C441        C665   1.482   1_655  S
In444       O446   2.250       .  S
In444       O447   2.261       .  S
In444       O455   2.257       .  S
In444       O449   2.254       .  S
In444       O451   2.257       .  S
In444       O452   2.276       .  S
In444       O453   2.232       .  S
In444       O456   2.252       .  S
C445        O451   1.264       .  A
C445        O453   1.258       .  A
C445        C877   1.471       .  S
O446        C454   1.259       .  A
O447        C454   1.263       .  A
C448        O455   1.264       .  A
C448        O449   1.262       .  A
C448        C666   1.484       .  S
C450        O452   1.264       .  A
C450        O456   1.259       .  A
C450        C671   1.484       .  S
C454        C712   1.442       .  S
C457        C458   1.531       .  S
C457        C463   1.531       .  S
C457        C461   1.537       .  S
C457        C660   1.464       .  S
C458        H465   1.087       .  S
C458        C459   1.365       .  D
C459        C460   1.540       .  S
C459        C704   1.442       .  S
C460        C464   1.540       .  S
C460        C462   1.530       .  S
C460        H466   1.112       .  S
C461        H467   1.087       .  S
C461        C462   1.361       .  D
C462        C661   1.436       .  S
C463        H468   1.087       .  S
C463        C464   1.364       .  D
C464        C655   1.443       .  S
C469        C470   1.528       .  S
C469        C475   1.528       .  S
C469        C473   1.535       .  S
C469        C651   1.461       .  S
C470        H477   1.087       .  S
C470        C471   1.363       .  D
C471        C472   1.542       .  S
C471        C649   1.441       .  S
C472        C476   1.543       .  S
C472        C474   1.533       .  S
C472        H478   1.112       .  S
C473        H479   1.087       .  S
C473        C474   1.360       .  D
C474        C664   1.437       .  S
C475        H480   1.087       .  S
C475        C476   1.364       .  D
C476        C694   1.442       .  S
C481        C482   1.528       .  S
C481        C487   1.530       .  S
C481        C485   1.537       .  S
C481        C654   1.461       .  S
C482        H489   1.087       .  S
C482        C483   1.363       .  D
C483        C484   1.541       .  S
C483        C670   1.441       .  S
C484        C488   1.539       .  S
C484        C486   1.531       .  S
C484        H490   1.112       .  S
C485        H491   1.087       .  S
C485        C486   1.361       .  D
C486        C648   1.436       .  S
C487        H492   1.087       .  S
C487        C488   1.364       .  D
C488        C644   1.440       .  S
C493        C494   1.529       .  S
C493        C499   1.528       .  S
C493        C497   1.535       .  S
C493        C657   1.463       .  S
C494        H501   1.087       .  S
C494        C495   1.364       .  D
C495        C496   1.547       .  S
C495        C641   1.447       .  S
C496        C500   1.547       .  S
C496        C498   1.532       .  S
C496        H502   1.111       .  S
C497        H503   1.087       .  S
C497        C498   1.360       .  D
C498        C645   1.436       .  S
C499        H504   1.087       .  S
C499        C500   1.364       .  D
C500        C679   1.447       .  S
In505       O507   2.246       .  S
In505       O508   2.256       .  S
In505       O516   2.230       .  S
In505       O510   2.261       .  S
In505       O512   2.264       .  S
In505       O513   2.258       .  S
In505       O514   2.227       .  S
In505       O517   2.237       .  S
C506        O512   1.266       .  A
C506        O514   1.259       .  A
C506        C738   1.474       .  S
O507        C515   1.260       .  A
O508        C515   1.264       .  A
C509        O516   1.261       .  A
C509        O510   1.267       .  A
C509        C637   1.477       .  S
C511        O513   1.266       .  A
C511        O517   1.260       .  A
C511        C633   1.477       .  S
C515        C718   1.441       .  S
In518       O520   2.254       .  S
In518       O521   2.262       .  S
In518       O529   2.261       .  S
In518       O523   2.272       .  S
In518       O525   2.253       .  S
In518       O526   2.261       .  S
In518       O527   2.260       .  S
In518       O530   2.243       .  S
C519        O525   1.260       .  A
C519        O527   1.258       .  A
C519        C710   1.440       .  S
O520        C528   1.262       .  A
O521        C528   1.261       .  A
C522        O529   1.260       .  A
C522        O523   1.261       .  A
C522        C629   1.484       .  S
C524        O526   1.261       .  A
C524        O530   1.260       .  A
C524        C782   1.477       .  S
C528        C638   1.481       .  S
In531       O533   2.257       .  S
In531       O534   2.269       .  S
In531       O542   2.245       .  S
In531       O536   2.260       .  S
In531       O538   2.274       .  S
In531       O539   2.258       .  S
In531       O540   2.221       .  S
In531       O543   2.254       .  S
C532        O538   1.265       .  A
C532        O540   1.258       .  A
C532        C773   1.473       .  S
O533        C541   1.261       .  A
O534        C541   1.263       .  A
C535        O542   1.263       .  A
C535        O536   1.263       .  A
C535        C626   1.482       .  S
C537        O539   1.262       .  A
C537        O543   1.259       .  A
C537        C642   1.442       .  S
C541        C630   1.484       .  S
In544       O546   2.251       .  S
In544       O547   2.242       .  S
In544       O555   2.238       .  S
In544       O549   2.274       .  S
In544       O551   2.271       .  S
In544       O552   2.247       .  S
In544       O553   2.217       .  S
In544       O556   2.247       .  S
C545        O551   1.265       .  A
C545        O553   1.258       .  A
C545        C758   1.470       .  S
O546        C554   1.259       .  A
O547        C554   1.259       .  A
C548        O555   1.258       .  A
C548        O549   1.263       .  A
C548        C625   1.478       .  S
C550        O552   1.260       .  A
C550        O556   1.263       .  A
C550        C622   1.476       .  S
C554        C643   1.434       .  S
In557       O559   2.252       .  S
In557       O560   2.252       .  S
In557       O568   2.245       .  S
In557       O562   2.264       .  S
In557       O564   2.257       .  S
In557       O565   2.247       .  S
In557       O566   2.224       .  S
In557       O569   2.245       .  S
C558        O564   1.264       .  A
C558        O566   1.257       .  A
C558        C750   1.468       .  S
O559        C567   1.262       .  A
O560        C567   1.260       .  A
C561        O568   1.260       .  A
C561        O562   1.263       .  A
C561        C617   1.477       .  S
C563        O565   1.261       .  A
C563        O569   1.258       .  A
C563        C650   1.435       .  S
C567        C613   1.477       .  S
In570       O572   2.247       .  S
In570       O573   2.249       .  S
In570       O581   2.244       .  S
In570       O575   2.255       .  S
In570       O577   2.269       .  S
In570       O578   2.261       .  S
In570       O579   2.219       .  S
In570       O582   2.239       .  S
C571        O577   1.265       .  A
C571        O579   1.257       .  A
C571        C766   1.469       .  S
O572        C580   1.260       .  A
O573        C580   1.263       .  A
C574        O581   1.263       .  A
C574        O575   1.264       .  A
C574        C618   1.480       .  S
C576        O578   1.264       .  A
C576        O582   1.259       .  A
C576        C634   1.476       .  S
C580        C656   1.438       .  S
In583       O585   2.260       .  S
In583       O586   2.245       .  S
In583       O594   2.243       .  S
In583       O588   2.258       .  S
In583       O590   2.265       .  S
In583       O591   2.251       .  S
In583       O592   2.222       .  S
In583       O595   2.258       .  S
C584        O590   1.264       .  A
C584        O592   1.257       .  A
C584        C741   1.468       .  S
O585        C593   1.262       .  A
O586        C593   1.260       .  A
C587        O594   1.261       .  A
C587        O588   1.261       .  A
C587        C609   1.477       .  S
C589        O591   1.260       .  A
C589        O595   1.259       .  A
C589        C725   1.441       .  S
C593        C614   1.476       .  S
In596       O598   2.260       .  S
In596       O599   2.238       .  S
In596       O607   2.239       .  S
In596       O601   2.255       .  S
In596       O603   2.275       .  S
In596       O604   2.241       .  S
In596       O605   2.212       .  S
In596       O608   2.264       .  S
C597        O603   1.261       .  A
C597        O605   1.258       .  A
C597        C790   1.476       .  S
O598        C606   1.259       .  A
O599        C606   1.258       .  A
C600        O607   1.260       .  A
C600        O601   1.262       .  A
C600        C610   1.474       .  S
C602        O604   1.257       .  A
C602        O608   1.262       .  A
C602        C621   1.474       .  S
C606        C706   1.434       .  S
C609        H611   1.087   1_655  S
C609        C610   1.344   1_655  D
C610        H612   1.087       .  S
C613        H615   1.087       .  S
C613        C614   1.342       .  D
C614        H616   1.087       .  S
C617        H619   1.087       .  S
C617        C618   1.345       .  D
C618        H620   1.086       .  S
C621        H623   1.087       .  S
C621        C622   1.342       .  D
C622        H624   1.086       .  S
C625        H627   1.087       .  S
C625        C626   1.344       .  D
C626        H628   1.086       .  S
C629        H631   1.087       .  S
C629        C630   1.347       .  D
C630        H632   1.087       .  S
C633        H635   1.087       .  S
C633        C634   1.341       .  D
C634        H636   1.086       .  S
C637        H639   1.087   1_655  S
C637        C638   1.344   1_655  D
C638        H640   1.086       .  S
C641        C642   1.210       .  T
C643        C644   1.205       .  T
C645        C646   1.202       .  T
C646        C647   1.406       .  S
C647        C648   1.202       .  T
C649        C650   1.206       .  T
C651        C652   1.201   1_655  T
C652        C653   1.404       .  S
C653        C654   1.202       .  T
C655        C656   1.207       .  T
C657        C658   1.203       .  T
C658        C659   1.407       .  S
C659        C660   1.203   1_455  T
C661        C662   1.202       .  T
C662        C663   1.407       .  S
C663        C664   1.203       .  T
C665        H667   1.087       .  S
C665        C666   1.344       .  D
C666        H668   1.086       .  S
C669        C670   1.206       .  T
C671        H673   1.087       .  S
C671        C672   1.345       .  D
C672        H674   1.087       .  S
C675        H677   1.087       .  S
C675        C676   1.341       .  D
C676        H678   1.087       .  S
C679        C680   1.209       .  T
C681        H683   1.087       .  S
C681        C682   1.342       .  D
C682        H684   1.087       .  S
C685        H687   1.086       .  S
C685        C686   1.343       .  D
C686        H688   1.087       .  S
C689        H691   1.087       .  S
C689        C690   1.346       .  D
C690        H692   1.087       .  S
C693        C694   1.206       .  T
C695        H697   1.087       .  S
C695        C696   1.342       .  D
C696        H698   1.087       .  S
C699        H701   1.086       .  S
C699        C700   1.344       .  D
C700        H702   1.087       .  S
C703        C704   1.206       .  T
C705        C706   1.205       .  T
C707        C708   1.205       .  T
C709        C710   1.208       .  T
C711        C712   1.209       .  T
C713        C714   1.203       .  T
C714        C715   1.407       .  S
C715        C716   1.203       .  T
C717        C718   1.209       .  T
C719        C720   1.207       .  T
C721        C722   1.204   1_556  T
C722        C723   1.410   1_455  S
C723        C724   1.204       .  T
C725        C726   1.209       .  T
C727        C728   1.209       .  T
C729        C730   1.203       .  T
C730        C731   1.407   1_455  S
C731        C732   1.203       .  T
C733        C734   1.204       .  T
C734        C735   1.408       .  S
C735        C736   1.204       .  T
C737        H739   1.086       .  S
C737        C738   1.342       .  D
C738        H740   1.087       .  S
C741        H743   1.087       .  S
C741        C742   1.342       .  D
C742        H744   1.086       .  S
C745        H747   1.086       .  S
C745        C746   1.344       .  D
C746        H748   1.087       .  S
C749        H751   1.086       .  S
C749        C750   1.340       .  D
C750        H752   1.087       .  S
C753        H755   1.087       .  S
C753        C754   1.344       .  D
C754        H756   1.087       .  S
C757        H759   1.086       .  S
C757        C758   1.342       .  D
C758        H760   1.087       .  S
C761        H763   1.086       .  S
C761        C762   1.341       .  D
C762        H764   1.087       .  S
C765        H767   1.086       .  S
C765        C766   1.341       .  D
C766        H768   1.087       .  S
C769        H771   1.086       .  S
C769        C770   1.347       .  D
C770        H772   1.086       .  S
C773        H775   1.087       .  S
C773        C774   1.343       .  D
C774        H776   1.086       .  S
C777        H779   1.087       .  S
C777        C778   1.342       .  D
C778        H780   1.087       .  S
C781        H783   1.087       .  S
C781        C782   1.344       .  D
C782        H784   1.086       .  S
C785        H787   1.087       .  S
C785        C786   1.342       .  D
C786        H788   1.086       .  S
C789        H791   1.087       .  S
C789        C790   1.341       .  D
C790        H792   1.086       .  S
C793        H795   1.087       .  S
C793        C794   1.344       .  D
C794        H796   1.087       .  S
C797        H799   1.087       .  S
C797        C798   1.343       .  D
C798        H800   1.086       .  S
C801        C802   1.208       .  T
C803        C804   1.210       .  T
C805        C806   1.203       .  T
C806        C807   1.408       .  S
C807        C808   1.203       .  T
C809        C810   1.204       .  T
C811        C812   1.202       .  T
C812        C813   1.406   1_545  S
C813        C814   1.202       .  T
C815        C816   1.207       .  T
C817        C818   1.203       .  T
C818        C819   1.407   1_565  S
C819        C820   1.204       .  T
C821        C822   1.203       .  T
C822        C823   1.407       .  S
C823        C824   1.203       .  T
C825        H827   1.086       .  S
C825        C826   1.341       .  D
C826        H828   1.087       .  S
C829        C830   1.209       .  T
C831        H833   1.086       .  S
C831        C832   1.342       .  D
C832        H834   1.087       .  S
C835        H837   1.087       .  S
C835        C836   1.342       .  D
C836        H838   1.086       .  S
C839        C840   1.208       .  T
C841        H843   1.086       .  S
C841        C842   1.343       .  D
C842        H844   1.087       .  S
C845        H847   1.087       .  S
C845        C846   1.347       .  D
C846        H848   1.087       .  S
C849        H851   1.086       .  S
C849        C850   1.342       .  D
C850        H852   1.087       .  S
C853        H855   1.087   1_565  S
C853        C854   1.343   1_565  D
C854        H856   1.086       .  S
C857        H859   1.087       .  S
C857        C858   1.340       .  D
C858        H860   1.086       .  S
C861        C862   1.203       .  T
C863        H865   1.087       .  S
C863        C864   1.343       .  D
C864        H866   1.086       .  S
C867        H869   1.087       .  S
C867        C868   1.342       .  D
C868        H870   1.087       .  S
C871        H873   1.086       .  S
C871        C872   1.344       .  D
C872        H874   1.087       .  S
C875        C876   1.205       .  T
C877        H879   1.087       .  S
C877        C878   1.341       .  D
C878        H880   1.087       .  S
C881        H883   1.087       .  S
C881        C882   1.342       .  D
C882        H884   1.087       .  S
C885        H887   1.086       .  S
C885        C886   1.341       .  D
C886        H888   1.087       .  S
C889        H891   1.087       .  S
C889        C890   1.341       .  D
C890        H892   1.087       .  S
C893        H895   1.087       .  S
C893        C894   1.341       .  D
C894        H896   1.087       .  S
C897        C898   1.211       .  T
C899        C900   1.211       .  T
C901        C902   1.211       .  T
C903        C904   1.210       .  T
C905        C906   1.206       .  T
C906        C907   1.412       .  S
C907        C908   1.206       .  T
C909        C910   1.205       .  T
C911        C912   1.205       .  T
C913        C914   1.203       .  T
C914        C915   1.408   1_565  S
C915        C916   1.203   1_556  T
C917        C918   1.204       .  T
C919        C920   1.205       .  T
C921        C922   1.204   1_554  T
C922        C923   1.409   1_545  S
C923        C924   1.204       .  T
C925        C926   1.202       .  T
C926        C927   1.406       .  S
C927        C928   1.202       .  T
