geometry optimzed in LAMMPS
_audit_creation_date              2020-11-30 
_audit_creation_method            'lammps2cif' 
_symmetry_space_group_name_H-M    'P1' 
_symmetry_Int_Tables_number       1 
_symmetry_cell_setting            triclinic 
loop_ 
_symmetry_equiv_pos_as_xyz 
  x,y,z 
_cell_length_a                    42.82981519 
_cell_length_b                    41.525526972329544 
_cell_length_c                    26.461557261052306 
_cell_angle_alpha                 89.77881540568265 
_cell_angle_beta                  91.76937384914119 
_cell_angle_gamma                 121.46247930069089 
loop_ 
_atom_site_label 
_atom_site_type_symbol 
_atom_site_fract_x 
_atom_site_fract_y 
_atom_site_fract_z 
_atom_site_charge 
C1          C  0.40615112  0.30983186  0.00525507    -0.03200
C2          C  0.06988942  0.39155298  0.49343706    -0.03200
C3          C  0.15502125  0.06335755  0.49926758    -0.03200
C4          C  0.06795197  0.14184061  0.99713031    -0.03200
C5          C  0.40111169  0.05588569  0.50537257    -0.03200
C6          C  0.31717366  0.38254832  0.50632582    -0.03200
O7          O  0.13450412  0.24154882  0.21234546    -0.86100
O8          O  0.19781903  0.30535547  0.18699679    -0.83100
C9          C  0.21934093  0.33990329  0.17868977     0.97400
O10         O  0.22081812  0.36474930  0.20804073    -0.83200
O11         O  0.15818858  0.36392580  0.18307300    -0.85800
C12         C  0.12455376  0.35166507  0.17672771     1.01900
O13         O  0.10178500  0.32866991  0.20759751    -0.78600
O14         O  0.10037345  0.26319341  0.18470670    -0.78800
C15         C  0.11208759  0.24112465  0.17987817     1.01800
O16         O  0.15194225  0.26237336  0.31684086    -0.86100
O17         O  0.21868698  0.32287303  0.29274333    -0.83200
C18         C  0.22211882  0.34822939  0.32275172     0.97400
O19         O  0.20480116  0.36466261  0.31426093    -0.83200
O20         O  0.14655322  0.37158723  0.28823608    -0.85800
C21         C  0.12182474  0.34982167  0.31794279     1.01900
O22         O  0.10604238  0.31445059  0.31292551    -0.78600
O23         O  0.09633742  0.24490333  0.29091888    -0.78800
C24         C  0.11780113  0.24148218  0.32142498     1.01800
Cr25       Cr  0.17420167  0.28528717  0.25209472     1.93700
Cr26       Cr  0.18060432  0.36246664  0.24856534     1.93200
Cr27       Cr  0.10482582  0.28950967  0.24913835     1.39100
O28         O  0.15323082  0.31247844  0.25006464    -1.23800
O29         O  0.27778043  0.14412587  0.31946228    -0.86100
O30         O  0.34053025  0.21045150  0.29583784    -0.83100
C31         C  0.36434487  0.21071572  0.32566201     0.97400
O32         O  0.37578989  0.18872742  0.31845801    -0.83200
O33         O  0.37391830  0.12423302  0.29138124    -0.85800
C34         C  0.35197822  0.10031638  0.32219951     1.01900
O35         O  0.31819043  0.08784323  0.31706074    -0.78600
O36         O  0.25458740  0.08621132  0.29270874    -0.78800
C37         C  0.25574423  0.10925023  0.32518885     1.01800
O38         O  0.25637892  0.12920555  0.21218168    -0.86100
O39         O  0.32192162  0.19191544  0.19042356    -0.83200
C40         C  0.35589237  0.21282700  0.18471928     0.97400
O41         O  0.37801467  0.20927709  0.21365171    -0.83200
O42         O  0.36970172  0.14090986  0.18704513    -0.85800
C43         C  0.35562886  0.10576335  0.18198506     1.01900
O44         O  0.33136985  0.08317101  0.21177794    -0.78600
O45         O  0.27267148  0.09032767  0.18675595    -0.78800
C46         C  0.25438465  0.10582736  0.17946033     1.01800
Cr47       Cr  0.30066332  0.16681646  0.25446576     1.93700
Cr48       Cr  0.37080633  0.16413982  0.25260766     1.93200
Cr49       Cr  0.29605195  0.09062652  0.25212029     1.39100
O50         O  0.32257144  0.14061479  0.25295371    -1.23800
C51         C  0.24387565  0.35091548  0.13524400    -0.06900
C52         C  0.26237344  0.33197963  0.12750480    -0.18000
C53         C  0.28590975  0.34030201  0.08707953     0.10300
C54         C  0.29128726  0.36906749  0.05162621    -0.06800
C55         C  0.26994316  0.38578892  0.05862029    -0.18000
C56         C  0.24744771  0.37792146  0.09999007     0.10400
S57         S  0.30443737  0.31013822  0.08254770    -0.33000
S58         S  0.22304454  0.40227964  0.10662374    -0.33000
H59         H  0.23320101  0.42195817  0.06083580     0.28400
H60         H  0.30392282  0.30192869  0.13426875     0.28400
H61         H  0.25803763  0.30999082  0.15367190     0.19000
H62         H  0.27247812  0.40702714  0.03248746     0.19000
C63         C  0.29034271  0.37268983  0.45877143    -0.06900
C64         C  0.28824899  0.40154988  0.43272007    -0.18000
C65         C  0.26800517  0.39485228  0.38753170     0.10300
C66         C  0.24591506  0.35773912  0.36872247    -0.06800
C67         C  0.24412371  0.32815070  0.39659688    -0.18000
C68         C  0.26515548  0.33478824  0.44147197     0.10400
S69         S  0.27295748  0.43539341  0.35483173    -0.33000
S70         S  0.25977808  0.29398185  0.47387679    -0.33000
H71         H  0.24553129  0.27081800  0.93297220     0.28400
H72         H  0.27201738  0.42141246  0.30610273     0.28400
H73         H  0.30227588  0.43014662  0.44702899     0.19000
H74         H  0.22556715  0.29944891  0.38332463     0.19000
C75         C  0.38801822  0.06405243  0.45372809    -0.06900
C76         C  0.41365947  0.09191155  0.42114660    -0.18000
C77         C  0.40313301  0.10437803  0.37863511     0.10300
C78         C  0.36567532  0.08641655  0.36409175    -0.06800
C79         C  0.34013162  0.05538633  0.39207646    -0.18000
C80         C  0.35035404  0.04436286  0.43682423     0.10400
S81         S  0.43869752  0.14437674  0.34542066    -0.33000
S82         S  0.31649625  0.00760703  0.97735798    -0.33000
H83         H  0.28620461  0.00246553  0.94812041     0.28400
H84         H  0.46581979  0.15787520  0.38447393     0.28400
H85         H  0.44261919  0.10522246  0.42843484     0.19000
H86         H  0.31149464  0.04081299  0.38029289     0.19000
C87         C  0.36676553  0.09121717  0.13961717    -0.06900
C88         C  0.35622300  0.09581439  0.09125564    -0.18000
C89         C  0.36874452  0.08762361  0.04766722     0.10300
C90         C  0.39004731  0.06963080  0.05169781    -0.06800
C91         C  0.40329871  0.06909781  0.10144847    -0.18000
C92         C  0.39126803  0.07828397  0.14486697     0.10400
S93         S  0.35985893  0.11038222  0.49409168    -0.33000
S94         S  0.40954704  0.07364936  0.20507440    -0.33000
H95         H  0.38954159  0.08237422  0.23706198     0.28400
H96         H  0.32509907  0.10335601  0.50642232     0.28400
H97         H  0.34027555  0.10920383  0.08770964     0.19000
H98         H  0.42302762  0.06040448  0.10670189     0.19000
C99         C  0.38408170  0.01140782  0.50740682    -0.06900
C100        C  0.36529342  0.49003810  0.04956007    -0.18000
C101        C  0.35045671  0.45121289  0.05446186     0.10300
C102        C  0.34429427  0.42663222  0.51237379    -0.06800
C103        C  0.36554036  0.44635300  0.47081914    -0.18000
C104        C  0.38329695  0.48582597  0.46672708     0.10400
S105        S  0.34411335  0.43347833  0.11851702    -0.33000
S106        S  0.40469975  0.00918773  0.40584793    -0.33000
H107        H  0.38494917  0.97599567  0.37624261     0.28400
H108        H  0.36342503  0.46851065  0.14426346     0.28400
H109        H  0.37409209  0.00393550  0.08785079     0.19000
H110        H  0.36531422  0.43014750  0.43892163     0.19000
C111        C  0.08303815  0.17122097  0.04368353    -0.06900
C112        C  0.09746205  0.16390979  0.08801186    -0.18000
C113        C  0.10374572  0.18353842  0.13354080     0.10300
C114        C  0.10083307  0.21572993  0.13500915    -0.06800
C115        C  0.09153984  0.22705556  0.09030627    -0.18000
C116        C  0.08341449  0.20647535  0.04489794     0.10400
S117        S  0.11390623  0.16452602  0.18872450    -0.33000
S118        S  0.07657513  0.22945692  0.99038781    -0.33000
H119        H  0.10219793  0.26350330  0.50518198     0.28400
H120        H  0.09152929  0.17042207  0.22039222     0.28400
H121        H  0.10399753  0.14249370  0.08904763     0.19000
H122        H  0.09208915  0.25342410  0.09053247     0.19000
C123        C  0.10355960  0.21303454  0.36288198    -0.06900
C124        C  0.12876114  0.21565890  0.40025942    -0.18000
C125        C  0.11799065  0.19216776  0.44235396     0.10300
C126        C  0.08011775  0.16433413  0.44882347    -0.06800
C127        C  0.05517099  0.16024930  0.40927522    -0.18000
C128        C  0.06633851  0.18394484  0.36704750     0.10400
S129        S  0.15476896  0.20152705  0.98926657    -0.33000
S130        S  0.03145892  0.17474822  0.31969688    -0.33000
H131        H  0.05220179  0.17520895  0.27928620     0.28400
H132        H  0.18394496  0.21797657  0.95598407     0.28400
H133        H  0.15752359  0.23674008  0.39699477     0.19000
H134        H  0.02651755  0.13853051  0.41060602     0.19000
C135        C  0.44458184  0.07729464  0.50905917    -0.06900
C136        C  0.46324096  0.05862016  0.49686887    -0.18000
C137        C  0.00028026  0.07579538  0.48990807     0.10300
C138        C  0.02444558  0.11816080  0.99798043    -0.06800
C139        C  0.00575340  0.13686530  0.00854462    -0.18000
C140        C  0.46989844  0.11520708  0.02525015     0.10400
S141        S  0.01262683  0.04725480  0.45462764    -0.33000
S142        S  0.45379104  0.14676396  0.03880119    -0.33000
H143        H  0.48666385  0.18115637  0.03106060     0.28400
H144        H  0.02901030  0.07436209  0.41669793     0.28400
H145        H  0.44895171  0.02857903  0.49181868     0.19000
H146        H  0.02039080  0.16667035  0.01382202     0.19000
C147        C  0.18120449  0.07947307  0.04629280    -0.06900
C148        C  0.20367969  0.06382833  0.05251482    -0.18000
C149        C  0.22739881  0.07142325  0.09442042     0.10300
C150        C  0.23019590  0.09648416  0.13286704    -0.06800
C151        C  0.21035074  0.11449547  0.12584254    -0.21400
C152        C  0.18665044  0.10724395  0.08355221     0.10400
S153        S  0.25318062  0.04797091  0.09715409    -0.33000
S154        S  0.16813870  0.13756131  0.07906415    -0.33000
H155        H  0.16965069  0.14556201  0.13100633     0.28400
H156        H  0.23829262  0.02557323  0.05303372     0.28400
H157        H  0.20114896  0.04343665  0.02499686     0.19000
H158        H  0.21408829  0.13541065  0.15357540     0.19000
C159        C  0.23068545  0.09617815  0.36940301    -0.06900
C160        C  0.23005490  0.12355020  0.39956708    -0.18000
C161        C  0.20729468  0.11419842  0.44117259     0.10300
C162        C  0.18229775  0.07557898  0.45362811    -0.06800
C163        C  0.18564244  0.04849158  0.42533443    -0.18000
C164        C  0.20864724  0.05801113  0.38376008     0.10400
S165        S  0.21194625  0.15322465  0.47711621    -0.33000
S166        S  0.21077830  0.02075067  0.35201135    -0.33000
H167        H  0.17902804  0.99026225  0.37217368     0.28400
H168        H  0.23456782  0.18275600  0.94530593     0.28400
H169        H  0.24806064  0.15305759  0.39089134     0.19000
H170        H  0.17158080  0.01944419  0.43669636     0.19000
C171        C  0.08373664  0.11248530  0.49617570    -0.06900
C172        C  0.10119824  0.11113850  0.45193109    -0.18000
C173        C  0.12140632  0.09341580  0.44924560     0.10300
C174        C  0.12709564  0.07715188  0.49334250    -0.06800
C175        C  0.10167556  0.07111271  0.03284942    -0.18000
C176        C  0.08009781  0.08780291  0.03434904     0.10400
S177        S  0.13204950  0.08622069  0.38607038    -0.33000
S178        S  0.04814566  0.07149255  0.08550455    -0.33000
H179        H  0.03684274  0.09748311  0.08285089     0.28400
H180        H  0.13613810  0.11941235  0.36527856     0.28400
H181        H  0.09744300  0.12210707  0.41684075     0.19000
H182        H  0.10074313  0.05407202  0.06438589     0.19000
C183        C  0.08103501  0.38341715  0.44129131    -0.06900
C184        C  0.11904853  0.40408402  0.43126416    -0.18000
C185        C  0.13334117  0.39516595  0.39016055     0.10300
C186        C  0.10930219  0.36525518  0.35726666    -0.06800
C187        C  0.07164669  0.34813049  0.36256940    -0.18000
C188        C  0.05692302  0.35784916  0.40196294     0.10400
S189        S  0.18232667  0.41900804  0.38390722    -0.33000
S190        S  0.00854247  0.34081700  0.39338646    -0.33000
H191        H  0.99870107  0.30770807  0.36590363     0.28400
H192        H  0.19241806  0.44124731  0.42828412     0.28400
H193        H  0.13802227  0.42520088  0.45841821     0.19000
H194        H  0.05349959  0.32754788  0.33418627     0.19000
C195        C  0.08631848  0.38032688  0.03964877    -0.06900
C196        C  0.07450467  0.38353281  0.08820837    -0.18000
C197        C  0.08715815  0.37577490  0.13332702     0.10300
C198        C  0.11174835  0.36309915  0.13156306    -0.06800
C199        C  0.12240882  0.35774510  0.08470015    -0.18000
C200        C  0.10903751  0.36407645  0.03906509     0.10400
S201        S  0.07208908  0.38424091  0.19199911    -0.33000
S202        S  0.11593908  0.34202391  0.98529333    -0.33000
H203        H  0.14458717  0.34126568  0.50015104     0.28400
H204        H  0.10466141  0.39520542  0.22001268     0.28400
H205        H  0.05640210  0.39430966  0.09121915     0.19000
H206        H  0.13919341  0.34526360  0.08388582     0.19000
C207        C  0.08842409  0.43626775  0.49627435    -0.06900
C208        C  0.11245361  0.45999007  0.03696260    -0.18000
C209        C  0.12673063  0.49871740  0.04263501     0.10300
C210        C  0.12937146  0.01883824  0.50195444    -0.06800
C211        C  0.10303287  0.49751325  0.46074877    -0.18000
C212        C  0.08411863  0.45783083  0.45713154     0.10400
S213        S  0.13146167  0.01449812  0.10995834    -0.33000
S214        S  0.05570304  0.43653566  0.40071899    -0.33000
H215        H  0.05159912  0.46699610  0.38739987     0.28400
H216        H  0.11224206  0.97945913  0.13421166     0.28400
H217        H  0.11917661  0.44755788  0.06758801     0.19000
H218        H  0.10662391  0.01467203  0.42720237     0.19000
C219        C  0.37788590  0.23582534  0.37052343    -0.06900
C220        C  0.37382245  0.21921491  0.41755915    -0.18000
C221        C  0.38401037  0.24043663  0.46254480     0.10300
C222        C  0.39614753  0.28004086  0.46104530    -0.06800
C223        C  0.40503605  0.29676456  0.41267333    -0.18000
C224        C  0.39516743  0.27529566  0.36795499     0.10400
S225        S  0.38681376  0.21554814  0.51720137    -0.33000
S226        S  0.40608868  0.29999844  0.30895769    -0.33000
H227        H  0.41209109  0.27415143  0.28373609     0.28400
H228        H  0.35857716  0.18283225  0.00563403     0.28400
H229        H  0.36341134  0.18917630  0.41897144     0.19000
H230        H  0.41838983  0.32713639  0.40960386     0.19000
C231        C  0.36929875  0.24119978  0.14342789    -0.06900
C232        C  0.34372545  0.23825327  0.10624965    -0.18000
C233        C  0.35438766  0.26034834  0.06261337     0.10300
C234        C  0.39225209  0.28761154  0.05571305    -0.06800
C235        C  0.41692278  0.29334660  0.09654415    -0.18000
C236        C  0.40641909  0.27006248  0.13889570     0.10400
S237        S  0.31943411  0.24917283  0.01371380    -0.33000
S238        S  0.44137427  0.27834497  0.18620957    -0.33000
H239        H  0.47206740  0.30537686  0.15997266     0.28400
H240        H  0.28967035  0.21872290  0.03739863     0.28400
H241        H  0.31513698  0.21683413  0.10992739     0.19000
H242        H  0.44504226  0.31616516  0.09582314     0.19000
C243        C  0.44823510  0.33277714  0.50762366    -0.06900
C244        C  0.46793647  0.31537137  0.00946476    -0.18000
C245        C  0.00713413  0.33257245  0.00690712     0.10300
C246        C  0.02726980  0.37071110  0.49926866    -0.06800
C247        C  0.00896073  0.39088206  0.49940863    -0.18000
C248        C  0.47023933  0.37227388  0.49753235     0.10400
S249        S  0.02519580  0.30168372  0.00676279    -0.33000
S250        S  0.45243639  0.40105070  0.47469994    -0.33000
H251        H  0.48558387  0.43363787  0.46205655     0.28400
H252        H  0.99196635  0.26734053  0.99770733     0.28400
H253        H  0.45230120  0.28550665  0.01558587     0.19000
H254        H  0.02413262  0.42109777  0.49864287     0.19000
C255        C  0.34329372  0.36684791  0.50161865    -0.06900
C256        C  0.36953597  0.37603126  0.03960637    -0.18000
C257        C  0.39106872  0.35939941  0.04110429     0.10300
C258        C  0.38555904  0.33064022  0.50511601    -0.06800
C259        C  0.36307435  0.32757804  0.46285100    -0.18000
C260        C  0.34686640  0.34923639  0.45796536     0.10400
S261        S  0.42386349  0.37252992  0.09343072    -0.33000
S262        S  0.33801478  0.35853291  0.39372759    -0.33000
H263        H  0.35784313  0.34522035  0.36898443     0.28400
H264        H  0.41905496  0.40030343  0.11561319     0.28400
H265        H  0.37130528  0.39318731  0.07130953     0.19000
H266        H  0.35748576  0.30847228  0.43201821     0.19000
C267        C  0.40515364  0.30731726  0.50804681    -0.03200
C268        C  0.07168255  0.39356092  0.99278777    -0.03200
C269        C  0.15354009  0.06355797  0.99911935    -0.03200
C270        C  0.06720157  0.13946742  0.49742951    -0.03200
C271        C  0.40350008  0.05494023  0.00634637    -0.03200
C272        C  0.31769633  0.38465123  0.00564646    -0.03200
O273        O  0.13595042  0.24129572  0.71301447    -0.86100
O274        O  0.19818104  0.30532348  0.68702019    -0.83100
C275        C  0.21919533  0.33976452  0.67803476     0.97400
O276        O  0.22052343  0.36487524  0.70666670    -0.83200
O277        O  0.15726904  0.36265939  0.68182820    -0.85800
C278        C  0.12350615  0.34980934  0.67590472     1.01900
O279        O  0.10118803  0.32694320  0.70718984    -0.78600
O280        O  0.10176655  0.26242666  0.68398583    -0.78800
C281        C  0.11396729  0.24069967  0.67960223     1.01800
O282        O  0.15378951  0.26368878  0.81714283    -0.86100
O283        O  0.21980642  0.32442233  0.79218540    -0.83200
C284        C  0.22272927  0.34967703  0.82195447     0.97400
O285        O  0.20504765  0.36565375  0.81297797    -0.83200
O286        O  0.14586700  0.37073207  0.78704352    -0.85800
C287        C  0.12161165  0.34890283  0.81728263     1.01900
O288        O  0.10607116  0.31348850  0.81234723    -0.78600
O289        O  0.09798204  0.24453728  0.79019553    -0.78800
C290        C  0.11974951  0.24201912  0.82110880     1.01800
Cr291      Cr  0.17539047  0.28587459  0.75219568     1.93700
Cr292      Cr  0.18030182  0.36230624  0.74731098     1.93200
Cr293      Cr  0.10533968  0.28854954  0.74853587     1.39100
O294        O  0.15372266  0.31235271  0.74957472    -1.23800
O295        O  0.27730775  0.14214010  0.82148174    -0.86100
O296        O  0.33927871  0.20821178  0.79602137    -0.83100
C297        C  0.36282781  0.20886816  0.82682135     0.97400
O298        O  0.37396682  0.18641474  0.82130956    -0.83200
O299        O  0.37405266  0.12263632  0.79359698    -0.85800
C300        C  0.35253427  0.09826137  0.82425706     1.01900
O301        O  0.31865271  0.08551422  0.81972251    -0.78600
O302        O  0.25458314  0.08364305  0.79689884    -0.78800
C303        C  0.25568335  0.10735546  0.82828758     1.01800
O304        O  0.25466265  0.12510767  0.71544965    -0.86100
O305        O  0.31991404  0.18735887  0.69106393    -0.83200
C306        C  0.35386989  0.20904865  0.68622977     0.97400
O307        O  0.37596699  0.20678449  0.71677236    -0.83200
O308        O  0.36889238  0.13952067  0.68989607    -0.85800
C309        C  0.35489554  0.10450228  0.68396731     1.01900
O310        O  0.33112402  0.08132971  0.71389279    -0.78600
O311        O  0.27131149  0.08662278  0.68998497    -0.78800
C312        C  0.25287759  0.10195011  0.68262296     1.01800
Cr313      Cr  0.29929940  0.16365848  0.75603422     1.93700
Cr314      Cr  0.36974591  0.16210595  0.75548504     1.93200
Cr315      Cr  0.29561480  0.08787064  0.75520406     1.39100
O316        O  0.32155390  0.13783318  0.75563560    -1.23800
C317        C  0.24339542  0.35014831  0.63473373    -0.06900
C318        C  0.26204398  0.33126258  0.62822704    -0.18000
C319        C  0.28488400  0.33844583  0.58744258     0.10300
C320        C  0.29019152  0.36680848  0.55135909    -0.06800
C321        C  0.26846429  0.38323593  0.55701326    -0.18000
C322        C  0.24579992  0.37565292  0.59792564     0.10400
S323        S  0.30209886  0.30708281  0.58315095    -0.33000
S324        S  0.21974195  0.39841172  0.60194184    -0.33000
H325        H  0.22513166  0.41214288  0.55228722     0.28400
H326        H  0.30216923  0.29955810  0.63503914     0.28400
H327        H  0.25806412  0.30995121  0.65538899     0.19000
H328        H  0.27082349  0.40408648  0.53030016     0.19000
C329        C  0.29021376  0.37461615  0.95884487    -0.06900
C330        C  0.28777992  0.40331815  0.93287915    -0.18000
C331        C  0.26786717  0.39654507  0.88732752     0.10300
C332        C  0.24615876  0.35941159  0.86836757    -0.06800
C333        C  0.24418560  0.32991179  0.89669349    -0.18000
C334        C  0.26503071  0.33669986  0.94177828     0.10400
S335        S  0.27289258  0.43701497  0.85433392    -0.33000
S336        S  0.25937744  0.29597762  0.97460951    -0.33000
H337        H  0.24066954  0.26715248  0.43491885     0.28400
H338        H  0.27217592  0.42300526  0.80571445     0.28400
H339        H  0.30149949  0.43186507  0.94734975     0.19000
H340        H  0.22569384  0.30113125  0.88362811     0.19000
C341        C  0.39018822  0.06285195  0.95493710    -0.06900
C342        C  0.41554290  0.09102873  0.92246698    -0.18000
C343        C  0.40452725  0.10256268  0.87937112     0.10300
C344        C  0.36687709  0.08440602  0.86550336    -0.06800
C345        C  0.34169451  0.05355005  0.89404633    -0.18000
C346        C  0.35238241  0.04293228  0.93870042     0.10400
S347        S  0.43969620  0.14158768  0.84439737    -0.33000
S348        S  0.31397717  0.00876958  0.47453196    -0.33000
H349        H  0.28432578  0.00749906  0.44814341     0.28400
H350        H  0.46719407  0.15607400  0.88295633     0.28400
H351        H  0.44452811  0.10549697  0.93078496     0.19000
H352        H  0.31296616  0.03889119  0.88284767     0.19000
C353        C  0.36587793  0.09102417  0.64050831    -0.06900
C354        C  0.35390761  0.09503079  0.59287629    -0.18000
C355        C  0.36610096  0.08746853  0.54852001     0.10300
C356        C  0.38833946  0.07052287  0.55127755    -0.06800
C357        C  0.40241884  0.06984001  0.60044870    -0.18000
C358        C  0.39151831  0.07965342  0.64437017     0.10400
S359        S  0.36523020  0.11208746  0.99294392    -0.33000
S360        S  0.41180886  0.07775958  0.70413286    -0.33000
H361        H  0.41376121  0.10971513  0.72550741     0.28400
H362        H  0.33045342  0.10594812  0.00305859     0.28400
H363        H  0.33706228  0.10745718  0.59051329     0.19000
H364        H  0.42173608  0.06053475  0.60478268     0.19000
C365        C  0.38697132  0.01038254  0.00827243    -0.06900
C366        C  0.36402495  0.48797304  0.55081098    -0.18000
C367        C  0.34899746  0.44904056  0.55579537     0.10300
C368        C  0.34488742  0.42876475  0.01086535    -0.06800
C369        C  0.36518327  0.44846566  0.96852663    -0.18000
C370        C  0.38250896  0.48794898  0.96423793     0.10400
S371        S  0.34144140  0.43109877  0.61976139    -0.33000
S372        S  0.40269454  0.00677239  0.90386543    -0.33000
H373        H  0.39116089  0.97278878  0.87761746     0.28400
H374        H  0.35913942  0.46599377  0.64586652     0.28400
H375        H  0.36493438  0.00417661  0.58430091     0.19000
H376        H  0.36476301  0.43226175  0.93645172     0.19000
C377        C  0.08273535  0.16894044  0.54407792    -0.06900
C378        C  0.09770225  0.16193933  0.58817612    -0.18000
C379        C  0.10631200  0.18306777  0.63321843     0.10300
C380        C  0.10341692  0.21532278  0.63451779    -0.06800
C381        C  0.09292445  0.22575650  0.59006037    -0.18000
C382        C  0.08385155  0.20453102  0.54512478     0.10400
S383        S  0.11990260  0.16719204  0.68883291    -0.33000
S384        S  0.07451276  0.22638585  0.49181325    -0.33000
H385        H  0.06701150  0.25240166  0.01641056     0.28400
H386        H  0.10907911  0.13094821  0.67048082     0.28400
H387        H  0.10354020  0.14009626  0.58869058     0.19000
H388        H  0.09225611  0.25150025  0.59009864     0.19000
C389        C  0.10581309  0.21376462  0.86226020    -0.06900
C390        C  0.13056028  0.21781516  0.90123488    -0.18000
C391        C  0.11943732  0.19430582  0.94317724     0.10300
C392        C  0.08145263  0.16656493  0.94883709    -0.06800
C393        C  0.05715276  0.16107884  0.90768760    -0.18000
C394        C  0.06903634  0.18349012  0.86448557     0.10400
S395        S  0.15389774  0.19898410  0.48708484    -0.33000
S396        S  0.03618289  0.17037767  0.81263341    -0.33000
H397        H  0.06073343  0.17371674  0.77582866     0.28400
H398        H  0.17821570  0.23727008  0.47663002     0.28400
H399        H  0.15903312  0.24017304  0.89958236     0.19000
H400        H  0.02871697  0.13863064  0.90794530     0.19000
C401        C  0.44696424  0.07657093  0.00982689    -0.06900
C402        C  0.46579357  0.05988149  0.99019244    -0.18000
C403        C  0.00118126  0.07837263  0.98955294     0.10300
C404        C  0.02362573  0.11547684  0.49920399    -0.06800
C405        C  0.00498661  0.13397138  0.51159417    -0.18000
C406        C  0.46752052  0.11702439  0.51831857     0.10400
S407        S  0.01322987  0.04962346  0.95415399    -0.33000
S408        S  0.45020208  0.14800193  0.52894685    -0.33000
H409        H  0.48332860  0.18310920  0.53082885     0.28400
H410        H  0.02944709  0.07651172  0.91592744     0.28400
H411        H  0.45150136  0.03057888  0.98039203     0.19000
H412        H  0.01956702  0.16333538  0.51896380     0.19000
C413        C  0.18209563  0.07897776  0.54720210    -0.06900
C414        C  0.20538487  0.06414588  0.55252865    -0.18000
C415        C  0.22800789  0.07027115  0.59539038     0.10300
C416        C  0.22915583  0.09322090  0.63561663    -0.06800
C417        C  0.20839958  0.11027195  0.62988820    -0.21400
C418        C  0.18578551  0.10458461  0.58699928     0.10400
S419        S  0.25352230  0.04659941  0.59774659    -0.33000
S420        S  0.16455429  0.13229613  0.59140134    -0.33000
H421        H  0.16175223  0.13952697  0.54078079     0.28400
H422        H  0.24936611  0.03639737  0.54624285     0.28400
H423        H  0.20391669  0.04494691  0.52379690     0.19000
H424        H  0.20995669  0.12892107  0.65973154     0.19000
C425        C  0.23068657  0.09523966  0.87219690    -0.06900
C426        C  0.22747464  0.12271140  0.89821069    -0.18000
C427        C  0.20429197  0.11387897  0.93919233     0.10300
C428        C  0.18046836  0.07538636  0.95346849    -0.06800
C429        C  0.18568410  0.04834285  0.92846199    -0.18000
C430        C  0.21060018  0.05783361  0.88968335     0.10400
S431        S  0.20518839  0.15290685  0.97039527    -0.33000
S432        S  0.21759218  0.02125513  0.86737471    -0.33000
H433        H  0.25598533  0.04411134  0.87194376     0.28400
H434        H  0.22518649  0.17991842  0.43822595     0.28400
H435        H  0.24344051  0.15173396  0.88628927     0.19000
H436        H  0.17222252  0.01949990  0.94096363     0.19000
C437        C  0.08407980  0.11455381  0.99638456    -0.06900
C438        C  0.10095917  0.11235676  0.95196358    -0.18000
C439        C  0.11925504  0.09271658  0.94886006     0.10300
C440        C  0.12593209  0.07774944  0.99350466    -0.06800
C441        C  0.10193284  0.06924737  0.53190836    -0.18000
C442        C  0.08003573  0.08558894  0.53372943     0.10400
S443        S  0.12840517  0.08363080  0.88560746    -0.33000
S444        S  0.04802116  0.06867031  0.58480751    -0.33000
H445        H  0.03719246  0.09506161  0.58342061     0.28400
H446        H  0.10295189  0.08953143  0.85882709     0.28400
H447        H  0.09856509  0.12443322  0.91709892     0.19000
H448        H  0.10069299  0.05162791  0.56289245     0.19000
C449        C  0.08222563  0.38456001  0.94058988    -0.06900
C450        C  0.11992415  0.40552082  0.92892639    -0.18000
C451        C  0.13363672  0.39593340  0.88772020     0.10300
C452        C  0.10940766  0.36447391  0.85703146    -0.06800
C453        C  0.07187961  0.34679490  0.86395379    -0.18000
C454        C  0.05762962  0.35802007  0.90233986     0.10400
S455        S  0.18240845  0.42102790  0.87898214    -0.33000
S456        S  0.00933711  0.34185758  0.89389714    -0.33000
H457        H  0.00028657  0.31684110  0.85276037     0.28400
H458        H  0.19219909  0.44962120  0.91542058     0.28400
H459        H  0.13923672  0.42749107  0.95489672     0.19000
H460        H  0.05350146  0.32480249  0.83728015     0.19000
C461        C  0.08399193  0.37752846  0.53981854    -0.06900
C462        C  0.07272140  0.38114500  0.58852726    -0.18000
C463        C  0.08590186  0.37373311  0.63333928     0.10300
C464        C  0.10997322  0.36045794  0.63094507    -0.06800
C465        C  0.11930834  0.35374889  0.58389387    -0.18000
C466        C  0.10573094  0.36018642  0.53856302     0.10400
S467        S  0.07235591  0.38359439  0.69238206    -0.33000
S468        S  0.11109503  0.33735974  0.48420117    -0.33000
H469        H  0.15134354  0.35066994  0.00046059     0.28400
H470        H  0.10537802  0.39461779  0.71920988     0.28400
H471        H  0.05503995  0.39240590  0.59187908     0.19000
H472        H  0.13541772  0.34052283  0.58288151     0.19000
C473        C  0.09006218  0.43838915  0.99488603    -0.06900
C474        C  0.11099769  0.45754120  0.53837140    -0.18000
C475        C  0.12482212  0.49609869  0.54476827     0.10300
C476        C  0.12770435  0.01908220  0.00221855    -0.06800
C477        C  0.10532111  0.49960368  0.95816817    -0.18000
C478        C  0.08620870  0.45980189  0.95505118     0.10400
S479        S  0.13302619  0.01299224  0.60959231    -0.33000
S480        S  0.05824442  0.43802774  0.89836087    -0.33000
H481        H  0.05942352  0.47008412  0.87846404     0.28400
H482        H  0.11409173  0.97748191  0.63275400     0.28400
H483        H  0.11812050  0.44498403  0.56842359     0.19000
H484        H  0.10633767  0.01478564  0.92672612     0.19000
C485        C  0.37641686  0.23503743  0.87061534    -0.06900
C486        C  0.37434427  0.21990177  0.91823830    -0.18000
C487        C  0.38503525  0.24218101  0.96226817     0.10300
C488        C  0.39642671  0.28157346  0.95916330    -0.06800
C489        C  0.40369719  0.29700198  0.90993947    -0.18000
C490        C  0.39220454  0.27418896  0.86607644     0.10400
S491        S  0.38906599  0.21876576  0.01787267    -0.33000
S492        S  0.39876811  0.29535132  0.80455416    -0.33000
H493        H  0.41022517  0.33201863  0.82182236     0.28400
H494        H  0.35505871  0.18072784  0.50424136     0.28400
H495        H  0.36489164  0.19012741  0.92083061     0.19000
H496        H  0.41666294  0.32723164  0.90593110     0.19000
C497        C  0.36743891  0.23717862  0.64479600    -0.06900
C498        C  0.34204635  0.23462802  0.60760991    -0.18000
C499        C  0.35299880  0.25711452  0.56432574     0.10300
C500        C  0.39095694  0.28421978  0.55777180    -0.06800
C501        C  0.41547571  0.28921358  0.59843292    -0.18000
C502        C  0.40472169  0.26552596  0.64026286     0.10400
S503        S  0.31829576  0.24656711  0.51531953    -0.33000
S504        S  0.43975182  0.27295871  0.68696869    -0.33000
H505        H  0.47004764  0.29356773  0.65613081     0.28400
H506        H  0.28742510  0.22107465  0.54249862     0.28400
H507        H  0.31340533  0.21325353  0.61097815     0.19000
H508        H  0.44366463  0.31196267  0.59833053     0.19000
C509        C  0.44921796  0.33491043  0.00404027    -0.06900
C510        C  0.46705866  0.31326318  0.51190445    -0.18000
C511        C  0.00494911  0.33091656  0.50612227     0.10300
C512        C  0.02901707  0.37232454  0.99892077    -0.06800
C513        C  0.01013843  0.39189463  0.99713878    -0.18000
C514        C  0.47130612  0.37408325  0.99245178     0.10400
S515        S  0.02206585  0.29927759  0.50485726    -0.33000
S516        S  0.45363331  0.40208436  0.96633513    -0.33000
H517        H  0.48589197  0.42991923  0.94372390     0.28400
H518        H  0.98890305  0.26621765  0.49050794     0.28400
H519        H  0.45144339  0.28324572  0.51729792     0.19000
H520        H  0.02487666  0.42210657  0.99486107     0.19000
C521        C  0.34390452  0.36905868  0.99988182    -0.06900
C522        C  0.36785504  0.37293830  0.54244546    -0.18000
C523        C  0.38864838  0.35549914  0.54500109     0.10300
C524        C  0.38681085  0.33345952  0.00204462    -0.06800
C525        C  0.36324366  0.32948370  0.96068395    -0.18000
C526        C  0.34668524  0.35088808  0.95618417     0.10400
S527        S  0.41958607  0.36691654  0.59921517    -0.33000
S528        S  0.33677190  0.35960715  0.89217363    -0.33000
H529        H  0.35184292  0.34161716  0.86621671     0.28400
H530        H  0.40465437  0.38274445  0.62997364     0.28400
H531        H  0.36933782  0.39006602  0.57404302     0.19000
H532        H  0.35699955  0.30975735  0.93043714     0.19000
C533        C  0.40512663  0.80694834  0.00541176    -0.03200
C534        C  0.07096443  0.89176855  0.49199765    -0.03200
C535        C  0.15238963  0.56215485  0.49787022    -0.03200
C536        C  0.06735459  0.64136237  0.99648167    -0.03200
C537        C  0.39868817  0.55249380  0.50347066    -0.03200
C538        C  0.31882128  0.88569189  0.50597759    -0.03200
O539        O  0.13857146  0.74313440  0.21064264    -0.86100
O540        O  0.20080013  0.80797675  0.18783490    -0.83100
C541        C  0.22139886  0.84257344  0.17931456     0.97400
O542        O  0.22138710  0.86710574  0.20753679    -0.83200
O543        O  0.15710132  0.86276045  0.18098520    -0.85800
C544        C  0.12324743  0.84960244  0.17494954     1.01900
O545        O  0.10110269  0.82657092  0.20630097    -0.78600
O546        O  0.10309612  0.76313585  0.18282479    -0.78800
C547        C  0.11613992  0.74225867  0.17773100     1.01800
O548        O  0.15398903  0.76322357  0.31606653    -0.86100
O549        O  0.21990817  0.82553405  0.29393906    -0.83200
C550        C  0.22258013  0.85102348  0.32303223     0.97400
O551        O  0.20482392  0.86685106  0.31320363    -0.83200
O552        O  0.14452867  0.86991268  0.28601189    -0.85800
C553        C  0.12059232  0.84771172  0.31631750     1.01900
O554        O  0.10561718  0.81238442  0.31139998    -0.78600
O555        O  0.09832799  0.74384581  0.28840194    -0.78800
C556        C  0.11991007  0.74128898  0.31961757     1.01800
Cr557      Cr  0.17667841  0.78710949  0.25199005     1.93700
Cr558      Cr  0.18006296  0.86288905  0.24707657     1.93200
Cr559      Cr  0.10574129  0.78828798  0.24742817     1.39100
O560        O  0.15425282  0.81284091  0.24913070    -1.23800
O561        O  0.27326422  0.63948940  0.31708501    -0.86100
O562        O  0.33603261  0.70635034  0.29496913    -0.83100
C563        C  0.35964812  0.70688032  0.32551574     0.97400
O564        O  0.37065541  0.68436449  0.31959377    -0.83200
O565        O  0.36973691  0.62023673  0.29190656    -0.85800
C566        C  0.34747317  0.59485201  0.32093980     1.01900
O567        O  0.31366540  0.58215698  0.31523594    -0.78600
O568        O  0.25052826  0.58148161  0.29050578    -0.78800
C569        C  0.25103187  0.60460193  0.32231408     1.01800
O570        O  0.25300069  0.62499541  0.21059313    -0.86100
O571        O  0.31854491  0.68762542  0.18912629    -0.83200
C572        C  0.35259094  0.70867545  0.18430965     0.97400
O573        O  0.37432109  0.70565715  0.21475767    -0.83200
O574        O  0.36706725  0.63824600  0.18798558    -0.85800
C575        C  0.35304827  0.60327119  0.18142018     1.01900
O576        O  0.32836236  0.57986330  0.21007940    -0.78600
O577        O  0.26990422  0.58691200  0.18431870    -0.78800
C578        C  0.25209387  0.60288394  0.17687715     1.01800
Cr579      Cr  0.29673973  0.66254834  0.25301087     1.93700
Cr580      Cr  0.36691184  0.66039495  0.25357190     1.93200
Cr581      Cr  0.29237230  0.58633872  0.25020391     1.39100
O582        O  0.31872188  0.63642780  0.25241709    -1.23800
C583        C  0.24657936  0.85375292  0.13692902    -0.06900
C584        C  0.26501078  0.83464603  0.13054699    -0.18000
C585        C  0.28824306  0.84178387  0.09038380     0.10300
C586        C  0.29359429  0.86990476  0.05352736    -0.06800
C587        C  0.27314656  0.88772303  0.06024136    -0.18000
C588        C  0.25076656  0.88075417  0.10140717     0.10400
S589        S  0.30848985  0.81295743  0.09451809    -0.33000
S590        S  0.22698599  0.90587326  0.10714055    -0.33000
H591        H  0.24252839  0.92996638  0.06584260     0.28400
H592        H  0.30742063  0.80459169  0.04359195     0.28400
H593        H  0.26126628  0.81358086  0.15808548     0.19000
H594        H  0.27602466  0.90888199  0.03372068     0.19000
C595        C  0.29086749  0.87606339  0.45954037    -0.06900
C596        C  0.28913474  0.90503552  0.43301957    -0.18000
C597        C  0.26858487  0.89824216  0.38791235     0.10300
C598        C  0.24586782  0.86099609  0.36975485    -0.06800
C599        C  0.24319432  0.83150148  0.39880083    -0.18000
C600        C  0.26432537  0.83824118  0.44357166     0.10400
S601        S  0.27396365  0.93872568  0.35455292    -0.33000
S602        S  0.25625605  0.79733132  0.47808571    -0.33000
H603        H  0.24006855  0.76978215  0.93864682     0.28400
H604        H  0.27192060  0.92400631  0.30595362     0.28400
H605        H  0.30365851  0.93375394  0.44682306     0.19000
H606        H  0.22380888  0.80269476  0.38662603     0.19000
C607        C  0.38459204  0.55886262  0.45135166    -0.06900
C608        C  0.40972981  0.58435422  0.41629336    -0.18000
C609        C  0.39883969  0.59606613  0.37347259     0.10300
C610        C  0.36113459  0.57996373  0.36168904    -0.06800
C611        C  0.33570429  0.55008842  0.39145463    -0.18000
C612        C  0.34661073  0.53932130  0.43595850     0.10400
S613        S  0.43462821  0.63216196  0.33570766    -0.33000
S614        S  0.31299871  0.50843635  0.97294999    -0.33000
H615        H  0.28307345  0.50462935  0.94414042     0.28400
H616        H  0.46215117  0.64756016  0.37425480     0.28400
H617        H  0.43866600  0.59595146  0.42146805     0.19000
H618        H  0.30682029  0.53668797  0.38162687     0.19000
C619        C  0.36461372  0.59008153  0.13817768    -0.06900
C620        C  0.35509334  0.59682695  0.09036670    -0.18000
C621        C  0.36682509  0.58864389  0.04601562     0.10300
C622        C  0.38770084  0.57017558  0.04894201    -0.06800
C623        C  0.40057357  0.56806832  0.09828878    -0.18000
C624        C  0.38830582  0.57612392  0.14236615     0.10400
S625        S  0.35729196  0.60687431  0.48965824    -0.33000
S626        S  0.40461582  0.56804665  0.20203411    -0.33000
H627        H  0.38702850  0.57938507  0.23481757     0.28400
H628        H  0.32340353  0.60136735  0.50374391     0.28400
H629        H  0.33984303  0.61099171  0.08810538     0.19000
H630        H  0.41899071  0.55761964  0.10264901     0.19000
C631        C  0.38198166  0.50818455  0.50705936    -0.06900
C632        C  0.37244349  0.99014107  0.05332695    -0.18000
C633        C  0.35502525  0.95087818  0.05683414     0.10300
C634        C  0.34616159  0.92975942  0.51163974    -0.06800
C635        C  0.36646492  0.94963003  0.46943672    -0.18000
C636        C  0.38377528  0.98913186  0.46559949     0.10400
S637        S  0.34889749  0.93225021  0.12041386    -0.33000
S638        S  0.40622742  0.50579730  0.40808127    -0.33000
H639        H  0.40424508  0.47344154  0.38803037     0.28400
H640        H  0.34680862  0.96094728  0.14520022     0.28400
H641        H  0.36161105  0.50305153  0.08154439     0.19000
H642        H  0.36594280  0.93352009  0.43711863     0.19000
C643        C  0.08320639  0.67065489  0.04266353    -0.06900
C644        C  0.09942372  0.66402147  0.08561309    -0.18000
C645        C  0.10912522  0.68544476  0.13020773     0.10300
C646        C  0.10552109  0.71722860  0.13251019    -0.06800
C647        C  0.09356616  0.72721973  0.08889820    -0.18000
C648        C  0.08278038  0.70537849  0.04449448     0.10400
S649        S  0.12465236  0.66926698  0.18310895    -0.33000
S650        S  0.06881455  0.72560372  0.99409579    -0.33000
H651        H  0.04447050  0.70019645  0.46974524     0.28400
H652        H  0.10185348  0.67210852  0.21754960     0.28400
H653        H  0.10425117  0.64140018  0.08639570     0.19000
H654        H  0.09248573  0.75274266  0.08932039     0.19000
C655        C  0.10572739  0.71296439  0.36103904    -0.06900
C656        C  0.13033093  0.71721017  0.40035633    -0.18000
C657        C  0.11912991  0.69401303  0.44267383     0.10300
C658        C  0.08114241  0.66616722  0.44845305    -0.06800
C659        C  0.05696205  0.66036552  0.40700145    -0.18000
C660        C  0.06888276  0.68267989  0.36355073     0.10400
S661        S  0.15406037  0.70255344  0.98753877    -0.33000
S662        S  0.03578773  0.66968648  0.31208593    -0.33000
H663        H  0.06008900  0.67323208  0.27490154     0.28400
H664        H  0.17637560  0.74163801  0.98018411     0.28400
H665        H  0.15882592  0.73950733  0.39868719     0.19000
H666        H  0.02844981  0.63814396  0.40769381     0.19000
C667        C  0.44224782  0.57444353  0.50652790    -0.06900
C668        C  0.46148217  0.55551604  0.50012911    -0.18000
C669        C  0.00106227  0.57825815  0.48498634     0.10300
C670        C  0.02390796  0.61674639  0.99939071    -0.06800
C671        C  0.00505748  0.63100874  0.02523123    -0.18000
C672        C  0.46670434  0.61582759  0.01694316     0.10400
S673        S  0.01403693  0.55148470  0.44682216    -0.33000
S674        S  0.45023200  0.64751463  0.02650711    -0.33000
H675        H  0.48068371  0.68015158  0.00740673     0.28400
H676        H  0.03121251  0.58013945  0.41108742     0.28400
H677        H  0.44750690  0.52525199  0.49925536     0.19000
H678        H  0.01918360  0.65697837  0.04600481     0.19000
C679        C  0.18213141  0.58120327  0.04184971    -0.06900
C680        C  0.20617167  0.56723684  0.04597639    -0.18000
C681        C  0.22953334  0.57403287  0.08803479     0.10300
C682        C  0.22966684  0.59569367  0.12917680    -0.06800
C683        C  0.20869225  0.61252196  0.12414684    -0.21400
C684        C  0.18599615  0.60689070  0.08152965     0.10400
S685        S  0.25752093  0.55312477  0.08793891    -0.33000
S686        S  0.16470474  0.63448090  0.08616356    -0.33000
H687        H  0.16168831  0.64158807  0.03554478     0.28400
H688        H  0.25416383  0.54494771  0.03578730     0.28400
H689        H  0.20486934  0.54828753  0.01696140     0.19000
H690        H  0.20996451  0.63074097  0.15440521     0.19000
C691        C  0.22548507  0.59191665  0.36578362    -0.06900
C692        C  0.22694159  0.61987882  0.39715933    -0.18000
C693        C  0.20501404  0.61136825  0.43938828     0.10300
C694        C  0.17868069  0.57305956  0.45139179    -0.06800
C695        C  0.17979989  0.54512749  0.42172095    -0.18000
C696        C  0.20144836  0.55384903  0.37899558     0.10400
S697        S  0.21170968  0.65118306  0.47564750    -0.33000
S698        S  0.19723892  0.51463962  0.34389674    -0.33000
H699        H  0.18655216  0.52476238  0.29866847     0.28400
H700        H  0.22773398  0.68163053  0.93437141     0.28400
H701        H  0.24548877  0.64928155  0.38847903     0.19000
H702        H  0.16445399  0.51575509  0.43160270     0.19000
C703        C  0.08386769  0.61405938  0.49576080    -0.06900
C704        C  0.10167645  0.61291601  0.45172010    -0.18000
C705        C  0.12034871  0.59372680  0.44845068     0.10300
C706        C  0.12507623  0.57658999  0.49216769    -0.06800
C707        C  0.10115287  0.57041212  0.02859394    -0.18000
C708        C  0.07930487  0.58676515  0.03063383     0.10400
S709        S  0.12955423  0.58548268  0.38490929    -0.33000
S710        S  0.04631684  0.56897684  0.08035920    -0.33000
H711        H  0.03856723  0.59760747  0.08324216     0.28400
H712        H  0.13644070  0.61997939  0.36491496     0.28400
H713        H  0.09891743  0.62467033  0.41676849     0.19000
H714        H  0.09964679  0.55237879  0.05919272     0.19000
C715        C  0.08142107  0.88289226  0.43983633    -0.06900
C716        C  0.11924396  0.90303653  0.42917851    -0.18000
C717        C  0.13288753  0.89326424  0.38822319     0.10300
C718        C  0.10837629  0.86290630  0.35624691    -0.06800
C719        C  0.07083816  0.84609664  0.36214862    -0.18000
C720        C  0.05674286  0.85708951  0.40099600     0.10400
S721        S  0.18175152  0.91651371  0.38125624    -0.33000
S722        S  0.00869141  0.84181402  0.39229245    -0.33000
H723        H  0.99829695  0.81223357  0.35727240     0.28400
H724        H  0.19243171  0.94078799  0.42362740     0.28400
H725        H  0.13857447  0.92440131  0.45579247     0.19000
H726        H  0.05243182  0.82510570  0.33438476     0.19000
C727        C  0.08349875  0.87763002  0.03873036    -0.06900
C728        C  0.07111639  0.87965152  0.08735372    -0.18000
C729        C  0.08384168  0.87158106  0.13215411     0.10300
C730        C  0.10940271  0.86014968  0.12994034    -0.06800
C731        C  0.11996923  0.85511406  0.08281297    -0.18000
C732        C  0.10552556  0.86056371  0.03748300     0.10400
S733        S  0.06778993  0.87840231  0.19103528    -0.33000
S734        S  0.11093013  0.83779264  0.98292317    -0.33000
H735        H  0.14693828  0.84315624  0.49901784     0.28400
H736        H  0.10061141  0.89059145  0.21905705     0.28400
H737        H  0.05263006  0.88992029  0.09078583     0.19000
H738        H  0.13803052  0.84416758  0.08166376     0.19000
C739        C  0.08996883  0.93671261  0.49499127    -0.06900
C740        C  0.10856253  0.95777115  0.03944190    -0.18000
C741        C  0.12355298  0.99672330  0.04533898     0.10300
C742        C  0.12659082  0.51796324  0.50222275    -0.06800
C743        C  0.10715287  0.99876170  0.45915756    -0.18000
C744        C  0.08724075  0.95892068  0.45533908     0.10400
S745        S  0.13535182  0.51661504  0.10725903    -0.33000
S746        S  0.05964517  0.93816962  0.39811839    -0.33000
H747        H  0.05982752  0.97032716  0.38076791     0.28400
H748        H  0.12075765  0.48195184  0.13230626     0.28400
H749        H  0.11322930  0.94468262  0.07118581     0.19000
H750        H  0.10123039  0.51303960  0.42913669     0.19000
C751        C  0.37397301  0.73334775  0.36919462    -0.06900
C752        C  0.37206913  0.71829018  0.41690159    -0.18000
C753        C  0.38347843  0.74076294  0.46089789     0.10300
C754        C  0.39517389  0.78024345  0.45781076    -0.06800
C755        C  0.40210646  0.79550012  0.40857600    -0.18000
C756        C  0.39043616  0.77271284  0.36484102     0.10400
S757        S  0.38765537  0.71741203  0.51648277    -0.33000
S758        S  0.39777752  0.79585022  0.30485000    -0.33000
H759        H  0.40108479  0.76898227  0.27759868     0.28400
H760        H  0.40082558  0.69543187  0.98738110     0.28400
H761        H  0.36220813  0.68842803  0.41958326     0.19000
H762        H  0.41507945  0.82572334  0.40409681     0.19000
C763        C  0.36657403  0.73670621  0.14255234    -0.06900
C764        C  0.34154534  0.73353557  0.10432882    -0.18000
C765        C  0.35272578  0.75606723  0.06107308     0.10300
C766        C  0.39065811  0.78362888  0.05509973    -0.06800
C767        C  0.41483644  0.78893134  0.09639925    -0.18000
C768        C  0.40377714  0.76550825  0.13865445     0.10400
S769        S  0.31821527  0.74499541  0.01163834    -0.33000
S770        S  0.43820583  0.77374975  0.18680773    -0.33000
H771        H  0.46925170  0.79789104  0.15894013     0.28400
H772        H  0.28717844  0.72254367  0.04039733     0.28400
H773        H  0.31298381  0.71167627  0.10692245     0.19000
H774        H  0.44298052  0.81176319  0.09639519     0.19000
C775        C  0.44830169  0.83321266  0.50280768    -0.06900
C776        C  0.46711347  0.81279755  0.01037975    -0.18000
C777        C  0.00434757  0.83133296  0.00576988     0.10300
C778        C  0.02838868  0.87095676  0.49787761    -0.06800
C779        C  0.00996878  0.89097286  0.49680103    -0.18000
C780        C  0.47070529  0.87240988  0.49159982     0.10400
S781        S  0.02147985  0.79965748  0.00462886    -0.33000
S782        S  0.45357630  0.90043123  0.46362041    -0.33000
H783        H  0.48722920  0.93360443  0.45453414     0.28400
H784        H  0.99124768  0.76778140  0.02536175     0.28400
H785        H  0.45152807  0.78303823  0.01700643     0.19000
H786        H  0.02504635  0.92118968  0.49425233     0.19000
C787        C  0.34471320  0.86983287  0.49905060    -0.06900
C788        C  0.37053659  0.87475649  0.03996826    -0.18000
C789        C  0.39072850  0.85670254  0.04193365     0.10300
C790        C  0.38645522  0.83288039  0.50060994    -0.06800
C791        C  0.36246977  0.82885275  0.45974637    -0.18000
C792        C  0.34609424  0.85053029  0.45556001     0.10400
S793        S  0.42312248  0.86872736  0.09454206    -0.33000
S794        S  0.33482990  0.85833614  0.39185470    -0.33000
H795        H  0.34705456  0.83782010  0.36546655     0.28400
H796        H  0.41276413  0.88978889  0.12343138     0.28400
H797        H  0.37363841  0.89289764  0.07104989     0.19000
H798        H  0.35567071  0.80873026  0.42982147     0.19000
C799        C  0.40523192  0.80865706  0.50381704    -0.03200
C800        C  0.06947745  0.89192639  0.99232353    -0.03200
C801        C  0.15415000  0.56472648  0.99523362    -0.03200
C802        C  0.06771801  0.64131603  0.49688588    -0.03200
C803        C  0.40019074  0.55506441  0.00321876    -0.03200
C804        C  0.31932197  0.88460319  0.00698180    -0.03200
O805        O  0.13718482  0.74320502  0.71137246    -0.86100
O806        O  0.20056694  0.80747148  0.68854593    -0.83100
C807        C  0.22150029  0.84204121  0.67992528     0.97400
O808        O  0.22212093  0.86679804  0.70850619    -0.83200
O809        O  0.15893411  0.86435242  0.68190197    -0.85800
C810        C  0.12521796  0.85155858  0.67527156     1.01900
O811        O  0.10263287  0.82888330  0.70642150    -0.78600
O812        O  0.10275296  0.76436798  0.68302031    -0.78800
C813        C  0.11481944  0.74257054  0.67847889     1.01800
O814        O  0.15267515  0.76384016  0.81678223    -0.86100
O815        O  0.21950193  0.82482407  0.79495179    -0.83200
C816        C  0.22267223  0.85048946  0.82420967     0.97400
O817        O  0.20540216  0.86684022  0.81444083    -0.83200
O818        O  0.14616319  0.87186367  0.78698778    -0.85800
C819        C  0.12145616  0.84982533  0.81659819     1.01900
O820        O  0.10604360  0.81446037  0.81141128    -0.78600
O821        O  0.09732463  0.74525468  0.78859481    -0.78800
C822        C  0.11850130  0.74264130  0.82043740     1.01800
Cr823      Cr  0.17591149  0.78701014  0.75274033     1.93700
Cr824      Cr  0.18119624  0.86369948  0.74809947     1.93200
Cr825      Cr  0.10593938  0.79001876  0.74756683     1.39100
O826        O  0.15443291  0.81366016  0.74965094    -1.23800
O827        O  0.27632810  0.64304615  0.81610739    -0.86100
O828        O  0.33856120  0.70962674  0.79287134    -0.83100
C829        C  0.36221092  0.71007733  0.82324757     0.97400
O830        O  0.37369465  0.68804525  0.81677362    -0.83200
O831        O  0.37300633  0.62407591  0.78989383    -0.85800
C832        C  0.35104176  0.60008154  0.82065090     1.01900
O833        O  0.31723522  0.58746272  0.81528336    -0.78600
O834        O  0.25342160  0.58512584  0.78944259    -0.78800
C835        C  0.25399667  0.60822850  0.82127807     1.01800
O836        O  0.25525367  0.62739878  0.70967598    -0.86100
O837        O  0.32027206  0.69038486  0.68760457    -0.83200
C838        C  0.35421439  0.71198117  0.68280544     0.97400
O839        O  0.37639113  0.70888870  0.71224356    -0.83200
O840        O  0.36907825  0.64117215  0.68557846    -0.85800
C841        C  0.35541887  0.60613334  0.68035655     1.01900
O842        O  0.33160378  0.58322958  0.71039593    -0.78600
O843        O  0.27237831  0.58924799  0.68400334    -0.78800
C844        C  0.25371098  0.60434000  0.67686131     1.01800
Cr845      Cr  0.29913298  0.66559582  0.75157122     1.93700
Cr846      Cr  0.36961628  0.66388648  0.75107586     1.93200
Cr847      Cr  0.29543017  0.58989684  0.74984845     1.39100
O848        O  0.32144195  0.63986007  0.75075133    -1.23800
C849        C  0.24618802  0.85309276  0.63677468    -0.06900
C850        C  0.26563745  0.83504496  0.63041251    -0.18000
C851        C  0.28874404  0.84264974  0.58981346     0.10300
C852        C  0.29300787  0.87017947  0.55259792    -0.06800
C853        C  0.27127399  0.88656544  0.55908113    -0.18000
C854        C  0.24889311  0.87904764  0.60043616     0.10400
S855        S  0.31023200  0.81507014  0.59343018    -0.33000
S856        S  0.22361630  0.90259070  0.60574093    -0.33000
H857        H  0.23268665  0.92086482  0.55888218     0.28400
H858        H  0.30794740  0.80646550  0.54236706     0.28400
H859        H  0.26284772  0.81453138  0.65826620     0.19000
H860        H  0.27331246  0.90729311  0.53239583     0.19000
C861        C  0.29126175  0.87498187  0.96057659    -0.06900
C862        C  0.28937735  0.90399484  0.93449268    -0.18000
C863        C  0.26863315  0.89736148  0.88959505     0.10300
C864        C  0.24605207  0.86020967  0.87093919    -0.06800
C865        C  0.24353885  0.83061234  0.89959299    -0.18000
C866        C  0.26465711  0.83718739  0.94440732     0.10400
S867        S  0.27350695  0.93796767  0.85721411    -0.33000
S868        S  0.25671636  0.79620529  0.97867546    -0.33000
H869        H  0.24360206  0.77221310  0.43641911     0.28400
H870        H  0.27222154  0.92401901  0.80835219     0.28400
H871        H  0.30394098  0.93263781  0.94859437     0.19000
H872        H  0.22423734  0.80188223  0.88707102     0.19000
C873        C  0.38709029  0.56317575  0.95158043    -0.06900
C874        C  0.41272710  0.59114087  0.91912906    -0.18000
C875        C  0.40214897  0.60409071  0.87717588     0.10300
C876        C  0.36470161  0.58612045  0.86253883    -0.06800
C877        C  0.33914436  0.55496464  0.89035139    -0.18000
C878        C  0.34936690  0.54377530  0.93496445     0.10400
S879        S  0.43757377  0.64503754  0.84527787    -0.33000
S880        S  0.31093274  0.50499044  0.47573629    -0.33000
H881        H  0.28067451  0.49609439  0.44350514     0.28400
H882        H  0.46424345  0.65834293  0.88492993     0.28400
H883        H  0.44169801  0.60448103  0.92648218     0.19000
H884        H  0.31049994  0.54055624  0.87866722     0.19000
C885        C  0.36634406  0.59212038  0.63733714    -0.06900
C886        C  0.35472852  0.59617181  0.58952073    -0.18000
C887        C  0.36529668  0.58636503  0.54543466     0.10300
C888        C  0.38663822  0.56838519  0.54878706    -0.06800
C889        C  0.40047778  0.56763613  0.59808787    -0.18000
C890        C  0.39033406  0.57862172  0.64176919     0.10400
S891        S  0.36134358  0.61168597  0.99096974    -0.33000
S892        S  0.40924520  0.57500075  0.70185304    -0.33000
H893        H  0.40983964  0.60552381  0.72554980     0.28400
H894        H  0.33076513  0.61285102  0.00627187     0.28400
H895        H  0.33883145  0.60964569  0.58670467     0.19000
H896        H  0.41882465  0.55713052  0.60277536     0.19000
C897        C  0.38279726  0.51047986  0.00566384    -0.06900
C898        C  0.36733762  0.99091804  0.55152667    -0.18000
C899        C  0.35216358  0.95198227  0.55575511     0.10300
C900        C  0.34736474  0.92855675  0.01227866    -0.06800
C901        C  0.36694088  0.94806869  0.96951534    -0.18000
C902        C  0.38466836  0.98760667  0.96548887     0.10400
S903        S  0.34620744  0.93380302  0.61955656    -0.33000
S904        S  0.40308839  0.50759100  0.90415825    -0.33000
H905        H  0.38309419  0.47421466  0.87495712     0.28400
H906        H  0.36460115  0.96851164  0.64611702     0.28400
H907        H  0.36055854  0.50153816  0.58247095     0.19000
H908        H  0.36492319  0.93154484  0.93681041     0.19000
C909        C  0.08313112  0.67072502  0.54328774    -0.06900
C910        C  0.09653449  0.66274344  0.58816903    -0.18000
C911        C  0.10455130  0.68363235  0.63310831     0.10300
C912        C  0.10350357  0.71693346  0.63369536    -0.06800
C913        C  0.09447988  0.72819554  0.58867579    -0.18000
C914        C  0.08474681  0.70665347  0.54399192     0.10400
S915        S  0.11421821  0.66478328  0.68890679    -0.33000
S916        S  0.07668628  0.73021595  0.49146629    -0.33000
H917        H  0.03723175  0.69297084  0.97599022     0.28400
H918        H  0.09282538  0.67227802  0.72051800     0.28400
H919        H  0.10074189  0.63971289  0.59010924     0.19000
H920        H  0.09540323  0.75480762  0.58807182     0.19000
C921        C  0.10389547  0.71490424  0.86245878    -0.06900
C922        C  0.12867358  0.71899293  0.90131718    -0.18000
C923        C  0.11790747  0.69536386  0.94300592     0.10300
C924        C  0.08019790  0.66655474  0.94831848    -0.06800
C925        C  0.05566549  0.66113180  0.90754328    -0.18000
C926        C  0.06702416  0.68462912  0.86493292     0.10400
S927        S  0.15458907  0.70144185  0.48869954    -0.33000
S928        S  0.03401533  0.67451987  0.81390255    -0.33000
H929        H  0.00731891  0.63816100  0.82948069     0.28400
H930        H  0.18332853  0.71621585  0.45471024     0.28400
H931        H  0.15726502  0.74091229  0.89908590     0.19000
H932        H  0.02729248  0.63879844  0.90890788     0.19000
C933        C  0.44370438  0.57627316  0.00689110    -0.06900
C934        C  0.46247735  0.55778886  0.99410365    -0.18000
C935        C  0.00090734  0.57966888  0.97842772     0.10300
C936        C  0.02420481  0.61731697  0.49846763    -0.06800
C937        C  0.00545574  0.63435182  0.51676744    -0.18000
C938        C  0.46472158  0.61461143  0.51035379     0.10400
S939        S  0.01663257  0.55802684  0.93493984    -0.33000
S940        S  0.44698099  0.64555521  0.51492155    -0.33000
H941        H  0.47606302  0.67703746  0.49159853     0.28400
H942        H  0.98208829  0.52873438  0.91693786     0.28400
H943        H  0.44789292  0.52784855  0.98871782     0.19000
H944        H  0.01997386  0.66237934  0.53136613     0.19000
C945        C  0.18018531  0.57844628  0.54469447    -0.06900
C946        C  0.20395640  0.56416485  0.54909960    -0.18000
C947        C  0.22801261  0.57177109  0.59056313     0.10300
C948        C  0.22949988  0.59503421  0.63055352    -0.06800
C949        C  0.20806329  0.61135787  0.62573220    -0.21400
C950        C  0.18438828  0.60460485  0.58393898     0.10400
S951        S  0.25519222  0.54990721  0.59131083    -0.33000
S952        S  0.16257433  0.63173660  0.58877888    -0.33000
H953        H  0.16119255  0.64008494  0.53817614     0.28400
H954        H  0.24895036  0.53790361  0.54038603     0.28400
H955        H  0.20206018  0.54459350  0.52058960     0.19000
H956        H  0.20989810  0.63026220  0.65540033     0.19000
C957        C  0.22821613  0.59550435  0.86433863    -0.06900
C958        C  0.22885381  0.62334297  0.89500831    -0.18000
C959        C  0.20605535  0.61461174  0.93627117     0.10300
C960        C  0.18038555  0.57614234  0.94864147    -0.06800
C961        C  0.18209601  0.54844828  0.91933773    -0.18000
C962        C  0.20427677  0.55735042  0.87709427     0.10400
S963        S  0.21174018  0.65421913  0.97208003    -0.33000
S964        S  0.20219078  0.51903700  0.84181936    -0.33000
H965        H  0.16858668  0.49005123  0.86000784     0.28400
H966        H  0.24828478  0.67632129  0.46295933     0.28400
H967        H  0.24789214  0.65275149  0.88697659     0.19000
H968        H  0.16738238  0.51929780  0.93010719     0.19000
C969        C  0.08395858  0.61462750  0.99431818    -0.06900
C970        C  0.10196673  0.61421857  0.95009094    -0.18000
C971        C  0.12109059  0.59551020  0.94638234     0.10300
C972        C  0.12632686  0.57853678  0.98993610    -0.06800
C973        C  0.09983531  0.56890364  0.53053836    -0.18000
C974        C  0.07877259  0.58616351  0.53252511     0.10400
S975        S  0.13035716  0.58769477  0.88265881    -0.33000
S976        S  0.04557402  0.56855538  0.58214312    -0.33000
H977        H  0.03602500  0.59593885  0.58232967     0.28400
H978        H  0.13631934  0.62188251  0.86276704     0.28400
H979        H  0.09892776  0.62609906  0.91541082     0.19000
H980        H  0.09783393  0.55063535  0.56113090     0.19000
C981        C  0.08060141  0.88356595  0.94018657    -0.06900
C982        C  0.11853270  0.90433454  0.92980250    -0.18000
C983        C  0.13272766  0.89539887  0.88854125     0.10300
C984        C  0.10874929  0.86504133  0.85614248    -0.06800
C985        C  0.07110276  0.84761817  0.86190158    -0.18000
C986        C  0.05643846  0.85768033  0.90107952     0.10400
S987        S  0.18164786  0.91989081  0.88146142    -0.33000
S988        S  0.00814934  0.84101810  0.89220679    -0.33000
H989        H  0.99811928  0.80806172  0.86421805     0.28400
H990        H  0.19167172  0.94435117  0.92351578     0.28400
H991        H  0.13753087  0.92568434  0.95669659     0.19000
H992        H  0.05292654  0.82673265  0.83384597     0.19000
C993        C  0.08510344  0.87778036  0.53843039    -0.06900
C994        C  0.07321549  0.88075093  0.58696706    -0.18000
C995        C  0.08658627  0.87381408  0.63190319     0.10300
C996        C  0.11190038  0.86210501  0.62994591    -0.06800
C997        C  0.12194617  0.85599847  0.58302113    -0.18000
C998        C  0.10763427  0.86132389  0.53751143     0.10400
S999        S  0.07150112  0.88218588  0.69062748    -0.33000
S1000       S  0.11262913  0.83758543  0.48389866    -0.33000
H1001       H  0.12046961  0.81413498  0.00829353     0.28400
H1002       H  0.10469933  0.89483568  0.71790795     0.28400
H1003       H  0.05487158  0.89121480  0.59016090     0.19000
H1004       H  0.13886417  0.84367709  0.58226164     0.19000
C1005       C  0.08816104  0.93687829  0.99565507    -0.06900
C1006       C  0.11172355  0.95765411  0.53788764    -0.18000
C1007       C  0.12600994  0.99632015  0.54453010     0.10300
C1008       C  0.12870996  0.52037656  0.99968123    -0.06800
C1009       C  0.10626626  0.99893533  0.95901132    -0.18000
C1010       C  0.08636087  0.95913033  0.95523184     0.10400
S1011       S  0.13301543  0.51345495  0.60961365    -0.33000
S1012       S  0.05954260  0.93838586  0.89730943    -0.33000
H1013       H  0.06475179  0.97153880  0.87491857     0.28400
H1014       H  0.11808167  0.47845208  0.63388864     0.28400
H1015       H  0.11783804  0.94481089  0.56860704     0.19000
H1016       H  0.10371146  0.51505026  0.92633063     0.19000
C1017       C  0.37563092  0.73536970  0.86789523    -0.06900
C1018       C  0.37460024  0.71943682  0.91465676    -0.18000
C1019       C  0.38555271  0.74082403  0.95946157     0.10300
C1020       C  0.39587971  0.77989638  0.95821984    -0.06800
C1021       C  0.40268022  0.79640080  0.90964216    -0.18000
C1022       C  0.39071265  0.77449840  0.86498358     0.10400
S1023       S  0.38912115  0.71630281  0.01405376    -0.33000
S1024       S  0.39528445  0.79674992  0.80463678    -0.33000
H1025       H  0.40851526  0.83341516  0.82363510     0.28400
H1026       H  0.35719606  0.68141540  0.50443066     0.28400
H1027       H  0.36496595  0.68956652  0.91621483     0.19000
H1028       H  0.41511923  0.82663879  0.90688684     0.19000
C1029       C  0.36753211  0.74056078  0.64200102    -0.06900
C1030       C  0.34224823  0.73699580  0.60397909    -0.18000
C1031       C  0.35313595  0.75935720  0.56068244     0.10300
C1032       C  0.39105296  0.78660834  0.55425563    -0.06800
C1033       C  0.41539141  0.79280559  0.59578864    -0.18000
C1034       C  0.40438551  0.77022987  0.63882891     0.10400
S1035       S  0.31843819  0.74803071  0.51140582    -0.33000
S1036       S  0.43797994  0.78072416  0.68939141    -0.33000
H1037       H  0.46885436  0.80959710  0.66542567     0.28400
H1038       H  0.28754258  0.72398035  0.53952418     0.28400
H1039       H  0.31379507  0.71487404  0.60666510     0.19000
H1040       H  0.44352376  0.81562739  0.59525857     0.19000
C1041       C  0.44828266  0.83219967  0.00479281    -0.06900
C1042       C  0.46675930  0.81344665  0.50913516    -0.18000
C1043       C  0.00620509  0.83119727  0.50545325     0.10300
C1044       C  0.02671664  0.87103711  0.99747020    -0.06800
C1045       C  0.00829125  0.89105386  0.99490155    -0.18000
C1046       C  0.47035242  0.87139456  0.99306543     0.10400
S1047       S  0.02341834  0.79962417  0.50380819    -0.33000
S1048       S  0.45252518  0.89937355  0.96727847    -0.33000
H1049       H  0.48523118  0.92906490  0.94795969     0.28400
H1050       H  0.98999491  0.76610956  0.49190646     0.28400
H1051       H  0.45110214  0.78374198  0.51653520     0.19000
H1052       H  0.02333905  0.92120343  0.99148081     0.19000
C1053       C  0.34462750  0.86805097  0.00077211    -0.06900
C1054       C  0.37111370  0.87714653  0.53771561    -0.18000
C1055       C  0.39186824  0.85968124  0.53909651     0.10300
C1056       C  0.38575055  0.83052216  0.00292657    -0.06800
C1057       C  0.36160343  0.82636998  0.96217999    -0.18000
C1058       C  0.34570232  0.84840494  0.95757529     0.10400
S1059       S  0.42493784  0.87285397  0.59100350    -0.33000
S1060       S  0.33518232  0.85659853  0.89364025    -0.33000
H1061       H  0.33986460  0.82975090  0.86833265     0.28400
H1062       H  0.42690653  0.90655914  0.60488741     0.28400
H1063       H  0.37389506  0.89494755  0.56923058     0.19000
H1064       H  0.35437682  0.80589411  0.93261488     0.19000
C1065       C  0.90694100  0.30861560  0.00643146    -0.03200
C1066       C  0.56959614  0.39086820  0.49338893    -0.03200
C1067       C  0.65235780  0.06154467  0.49858120    -0.03200
C1068       C  0.56977079  0.14140258  0.99928217    -0.03200
C1069       C  0.90042289  0.05447175  0.50456962    -0.03200
C1070       C  0.81867026  0.38483417  0.50769816    -0.03200
O1071       O  0.63720657  0.24220464  0.21431615    -0.86100
O1072       O  0.70003534  0.30627172  0.18973724    -0.83100
C1073       C  0.72067180  0.34072896  0.18023169     0.97400
O1074       O  0.72125061  0.36583774  0.20806839    -0.83200
O1075       O  0.65776052  0.36347164  0.18268422    -0.85800
C1076       C  0.62395176  0.35052649  0.17641404     1.01900
O1077       O  0.60162540  0.32741441  0.20749899    -0.78600
O1078       O  0.60305259  0.26334676  0.18476461    -0.78800
C1079       C  0.61531468  0.24167101  0.18077061     1.01800
O1080       O  0.65349186  0.26411475  0.31911577    -0.86100
O1081       O  0.71996219  0.32487000  0.29526746    -0.83200
C1082       C  0.72295644  0.35041520  0.32446856     0.97400
O1083       O  0.70560292  0.36665906  0.31458553    -0.83200
O1084       O  0.64599774  0.37110066  0.28807709    -0.85800
C1085       C  0.62134510  0.34902686  0.31771675     1.01900
O1086       O  0.60591434  0.31365725  0.31260970    -0.78600
O1087       O  0.59806393  0.24475228  0.29058258    -0.78800
C1088       C  0.61937600  0.24239661  0.32252265     1.01800
Cr1089     Cr  0.67606597  0.28657394  0.25441335     1.93700
Cr1090     Cr  0.68077693  0.36303673  0.24853780     1.93200
Cr1091     Cr  0.60586934  0.28906478  0.24903094     1.39100
O1092       O  0.65433339  0.31303761  0.25081361    -1.23800
O1093       O  0.77539296  0.14217119  0.31965289    -0.86100
O1094       O  0.83797960  0.20875007  0.29683856    -0.83100
C1095       C  0.86165029  0.20909545  0.32709121     0.97400
O1096       O  0.87284649  0.18678788  0.32062177    -0.83200
O1097       O  0.87208824  0.12277003  0.29204434    -0.85800
C1098       C  0.85018804  0.09840905  0.32246446     1.01900
O1099       O  0.81643994  0.08604649  0.31754719    -0.78600
O1100       O  0.75273818  0.08422088  0.29312293    -0.78800
C1101       C  0.75359874  0.10725420  0.32539932     1.01800
O1102       O  0.75463211  0.12729464  0.21262808    -0.86100
O1103       O  0.82016664  0.19036271  0.19103348    -0.83200
C1104       C  0.85422548  0.21156986  0.18617994     0.97400
O1105       O  0.87604068  0.20847882  0.21632612    -0.83200
O1106       O  0.86845214  0.14100944  0.18844068    -0.85800
C1107       C  0.85456033  0.10601604  0.18226630     1.01900
O1108       O  0.83037603  0.08277427  0.21173926    -0.78600
O1109       O  0.77136595  0.08876280  0.18733860    -0.78800
C1110       C  0.75304829  0.10413641  0.17993016     1.01800
Cr1111     Cr  0.79852127  0.16509215  0.25502398     1.93700
Cr1112     Cr  0.86884544  0.16306631  0.25440758     1.93200
Cr1113     Cr  0.79452230  0.08913859  0.25260307     1.39100
O1114       O  0.82064211  0.13914138  0.25395291    -1.23800
C1115       C  0.74517572  0.35121674  0.13698459    -0.06900
C1116       C  0.76446733  0.33294140  0.13110754    -0.18000
C1117       C  0.78761667  0.34020163  0.09067087     0.10300
C1118       C  0.79223008  0.36776033  0.05329182    -0.06800
C1119       C  0.77050579  0.38422584  0.05914030    -0.18000
C1120       C  0.74785423  0.37680767  0.10011543     0.10400
S1121       S  0.80886602  0.31238439  0.09498561    -0.33000
S1122       S  0.72231634  0.40012909  0.10429284    -0.33000
H1123       H  0.72787343  0.41401065  0.05471844     0.28400
H1124       H  0.80776753  0.30430391  0.04398217     0.28400
H1125       H  0.76156246  0.31256488  0.15926415     0.19000
H1126       H  0.77279779  0.40501901  0.03237928     0.19000
C1127       C  0.79107707  0.37504560  0.46100718    -0.06900
C1128       C  0.78889812  0.40392894  0.43511957    -0.18000
C1129       C  0.76843441  0.39722583  0.39001410     0.10300
C1130       C  0.74621429  0.36009686  0.37122067    -0.06800
C1131       C  0.74419304  0.33052460  0.39946187    -0.18000
C1132       C  0.76542652  0.33717472  0.44413493     0.10400
S1133       S  0.77347704  0.43774472  0.35721360    -0.33000
S1134       S  0.75963956  0.29624274  0.47654059    -0.33000
H1135       H  0.74173127  0.26889861  0.93626508     0.28400
H1136       H  0.77284196  0.42381595  0.30857692     0.28400
H1137       H  0.80324281  0.43255712  0.44931860     0.19000
H1138       H  0.72542485  0.30175564  0.38656789     0.19000
C1139       C  0.88689481  0.06145508  0.45240910    -0.06900
C1140       C  0.91226969  0.08825446  0.41866625    -0.18000
C1141       C  0.90149418  0.10124792  0.37704134     0.10300
C1142       C  0.86393074  0.08389014  0.36351259    -0.06800
C1143       C  0.83849243  0.05292620  0.39175961    -0.18000
C1144       C  0.84905505  0.04188090  0.43626832     0.10400
S1145       S  0.93696192  0.14155575  0.34429285    -0.33000
S1146       S  0.81399842  0.01032109  0.97698957    -0.33000
H1147       H  0.78411473  0.99927577  0.94296874     0.28400
H1148       H  0.96347579  0.15523012  0.38417174     0.28400
H1149       H  0.94124563  0.10055257  0.42458502     0.19000
H1150       H  0.80972920  0.03892640  0.38089639     0.19000
C1151       C  0.86585067  0.09257011  0.13884979    -0.06900
C1152       C  0.85553921  0.09821885  0.09088949    -0.18000
C1153       C  0.86773717  0.09033372  0.04670531     0.10300
C1154       C  0.88946261  0.07282356  0.04989949    -0.06800
C1155       C  0.90295087  0.07172679  0.09925655    -0.18000
C1156       C  0.89072813  0.08014784  0.14314246     0.10400
S1157       S  0.86053543  0.11024568  0.48987928    -0.33000
S1158       S  0.90927841  0.07606057  0.20326457    -0.33000
H1159       H  0.87818823  0.06589516  0.23119295     0.28400
H1160       H  0.82639451  0.10465087  0.50275797     0.28400
H1161       H  0.83948510  0.11151668  0.08820925     0.19000
H1162       H  0.92191973  0.06199632  0.10387276     0.19000
C1163       C  0.88340577  0.00998825  0.50768027    -0.06900
C1164       C  0.86825438  0.48879086  0.05252616    -0.18000
C1165       C  0.85223723  0.44970247  0.05679787     0.10300
C1166       C  0.84621437  0.42885923  0.51317193    -0.06800
C1167       C  0.86675947  0.44837514  0.47099095    -0.18000
C1168       C  0.88482971  0.48788754  0.46694755     0.10400
S1169       S  0.84518103  0.43147652  0.12059913    -0.33000
S1170       S  0.90778312  0.00805329  0.40874326    -0.33000
H1171       H  0.90549577  0.97569439  0.38813924     0.28400
H1172       H  0.86828040  0.46599812  0.14628325     0.28400
H1173       H  0.86362756  0.00584115  0.08307637     0.19000
H1174       H  0.86565753  0.43206497  0.43858872     0.19000
C1175       C  0.58551487  0.17070108  0.04552483    -0.06900
C1176       C  0.59791946  0.16205667  0.09075221    -0.18000
C1177       C  0.60547802  0.18282282  0.13573707     0.10300
C1178       C  0.60490497  0.21641695  0.13588956    -0.06800
C1179       C  0.59658838  0.22803019  0.09066737    -0.18000
C1180       C  0.58654767  0.20627492  0.04629165     0.10400
S1181       S  0.61330081  0.16320767  0.19223874    -0.33000
S1182       S  0.57444684  0.22734007  0.99493458    -0.33000
H1183       H  0.56396879  0.24803079  0.52090204     0.28400
H1184       H  0.59174719  0.17127796  0.22266326     0.28400
H1185       H  0.60074555  0.13809451  0.09304062     0.19000
H1186       H  0.59733650  0.25455298  0.08999186     0.19000
C1187       C  0.60490114  0.21409515  0.36395587    -0.06900
C1188       C  0.62979835  0.21687463  0.40190709    -0.18000
C1189       C  0.61878062  0.19281425  0.44332669     0.10300
C1190       C  0.58077778  0.16529145  0.44939709    -0.06800
C1191       C  0.55614962  0.16117148  0.40939068    -0.18000
C1192       C  0.56775309  0.18460370  0.36684176     0.10400
S1193       S  0.65637181  0.20210456  0.98980705    -0.33000
S1194       S  0.53445363  0.17546630  0.31660760    -0.33000
H1195       H  0.50789449  0.13875541  0.33121753     0.28400
H1196       H  0.67882976  0.24103761  0.98153406     0.28400
H1197       H  0.65843109  0.23867805  0.39979896     0.19000
H1198       H  0.52746981  0.13977064  0.41101602     0.19000
C1199       C  0.94401285  0.07611511  0.50839623    -0.06900
C1200       C  0.96300244  0.05695314  0.50168409    -0.18000
C1201       C  0.50041852  0.07805282  0.48504410     0.10300
C1202       C  0.52644863  0.11732398  0.00173013    -0.06800
C1203       C  0.50788038  0.13189068  0.02754580    -0.18000
C1204       C  0.96772963  0.11908289  0.01102313     0.10400
S1205       S  0.51286986  0.05164901  0.44519529    -0.33000
S1206       S  0.95019901  0.15016871  0.01597946    -0.33000
H1207       H  0.97867080  0.18111841  0.99097026     0.28400
H1208       H  0.53030601  0.08100086  0.41042325     0.28400
H1209       H  0.94879853  0.02668858  0.50045387     0.19000
H1210       H  0.52228227  0.15794734  0.04822004     0.19000
C1211       C  0.68075417  0.07797140  0.04640123    -0.06900
C1212       C  0.70488422  0.06420040  0.05141592    -0.18000
C1213       C  0.72871409  0.07215033  0.09318041     0.10300
C1214       C  0.72928285  0.09487919  0.13325007    -0.06800
C1215       C  0.70744024  0.11065810  0.12801581    -0.21400
C1216       C  0.68418771  0.10382114  0.08567746     0.10400
S1217       S  0.75679549  0.05132196  0.09393709    -0.33000
S1218       S  0.66187457  0.13045315  0.09018017    -0.33000
H1219       H  0.66081461  0.13911361  0.03968833     0.28400
H1220       H  0.75433150  0.04380199  0.04167536     0.28400
H1221       H  0.70356184  0.04476909  0.02315523     0.19000
H1222       H  0.70865360  0.12920057  0.15776518     0.19000
C1223       C  0.72846899  0.09422648  0.36943560    -0.06900
C1224       C  0.72753415  0.12160724  0.39919486    -0.18000
C1225       C  0.70452180  0.11226039  0.44048979     0.10300
C1226       C  0.67939975  0.07361368  0.45274110    -0.06800
C1227       C  0.68265710  0.04647876  0.42439172    -0.18000
C1228       C  0.70635116  0.05612866  0.38386639     0.10400
S1229       S  0.70903099  0.15123662  0.47653272    -0.33000
S1230       S  0.70830283  0.01824096  0.35438064    -0.33000
H1231       H  0.74669180  0.03686220  0.35967499     0.28400
H1232       H  0.74694424  0.17872592  0.96211661     0.28400
H1233       H  0.74554762  0.15109942  0.39049926     0.19000
H1234       H  0.66827579  0.01718745  0.43484952     0.19000
C1235       C  0.58299306  0.11242246  0.49579679    -0.06900
C1236       C  0.60073972  0.11130579  0.45168241    -0.18000
C1237       C  0.61948452  0.09211526  0.44843817     0.10300
C1238       C  0.62436918  0.07517778  0.49232797    -0.06800
C1239       C  0.60025871  0.06741752  0.03053489    -0.18000
C1240       C  0.57954425  0.08506827  0.03282309     0.10400
S1241       S  0.62893819  0.08364583  0.38507790    -0.33000
S1242       S  0.54496066  0.06617225  0.08048994    -0.33000
H1243       H  0.53781288  0.09515559  0.08475841     0.28400
H1244       H  0.63039822  0.11490987  0.36183110     0.28400
H1245       H  0.59805416  0.12334561  0.41697180     0.19000
H1246       H  0.59754594  0.04838255  0.06044460     0.19000
C1247       C  0.58059451  0.38266918  0.44116704    -0.06900
C1248       C  0.61853955  0.40336703  0.43091727    -0.18000
C1249       C  0.63272456  0.39447994  0.38968731     0.10300
C1250       C  0.60869426  0.36422701  0.35721083    -0.06800
C1251       C  0.57104009  0.34693885  0.36277663    -0.18000
C1252       C  0.55640243  0.35693213  0.40202057     0.10400
S1253       S  0.68168204  0.41876679  0.38302355    -0.33000
S1254       S  0.50806854  0.34009760  0.39344133    -0.33000
H1255       H  0.49805779  0.30661463  0.36679073     0.28400
H1256       H  0.69136518  0.44607362  0.42137195     0.28400
H1257       H  0.63758927  0.42449109  0.45801029     0.19000
H1258       H  0.55283846  0.32615912  0.33462253     0.19000
C1259       C  0.58437120  0.37796484  0.03928266    -0.06900
C1260       C  0.57209745  0.38049694  0.08778179    -0.18000
C1261       C  0.58468328  0.37254693  0.13287274     0.10300
C1262       C  0.61029621  0.36113018  0.13114793    -0.06800
C1263       C  0.62083549  0.35576487  0.08418341    -0.18000
C1264       C  0.60635175  0.36083572  0.03859350     0.10400
S1265       S  0.56819768  0.37926233  0.19143109    -0.33000
S1266       S  0.61151368  0.33746457  0.98451571    -0.33000
H1267       H  0.64026724  0.33343692  0.50195778     0.28400
H1268       H  0.60067349  0.39104566  0.22011640     0.28400
H1269       H  0.55376179  0.39098068  0.09084797     0.19000
H1270       H  0.63876488  0.34466076  0.08345535     0.19000
C1271       C  0.58826051  0.43569859  0.49642041    -0.06900
C1272       C  0.61106768  0.45810681  0.03893263    -0.18000
C1273       C  0.62566652  0.49689924  0.04538411     0.10300
C1274       C  0.62717878  0.01709095  0.50194967    -0.06800
C1275       C  0.60423300  0.49732447  0.46051311    -0.18000
C1276       C  0.58466165  0.45754012  0.45700169     0.10400
S1277       S  0.63340386  0.01207962  0.10959551    -0.33000
S1278       S  0.55611973  0.43625409  0.40058623    -0.33000
H1279       H  0.55837235  0.46880249  0.38058802     0.28400
H1280       H  0.61757772  0.97704468  0.13394130     0.28400
H1281       H  0.61671169  0.44497913  0.06975107     0.19000
H1282       H  0.60351358  0.01246682  0.42769342     0.19000
C1283       C  0.87572319  0.23501645  0.37117700    -0.06900
C1284       C  0.87360449  0.21937776  0.41851043    -0.18000
C1285       C  0.88443154  0.24126053  0.46295474     0.10300
C1286       C  0.89598401  0.28069841  0.46060001    -0.06800
C1287       C  0.90338940  0.29660967  0.41174953    -0.18000
C1288       C  0.89193972  0.27437569  0.36759879     0.10400
S1289       S  0.88817153  0.21731877  0.51813757    -0.33000
S1290       S  0.89897374  0.29817092  0.30818077    -0.33000
H1291       H  0.90239703  0.27175344  0.28001962     0.28400
H1292       H  0.85820790  0.18302795  0.00624394     0.28400
H1293       H  0.86390767  0.18952217  0.42057981     0.19000
H1294       H  0.91629328  0.32688327  0.40792358     0.19000
C1295       C  0.86821567  0.23973016  0.14457603    -0.06900
C1296       C  0.84325246  0.23639483  0.10619435    -0.18000
C1297       C  0.85453838  0.25854487  0.06264896     0.10300
C1298       C  0.89250993  0.28588226  0.05650633    -0.06800
C1299       C  0.91662755  0.29161466  0.09805714    -0.18000
C1300       C  0.90542815  0.26864074  0.14079091     0.10400
S1301       S  0.82007335  0.24690832  0.01297976    -0.33000
S1302       S  0.93962849  0.27737799  0.18961560    -0.33000
H1303       H  0.97065581  0.30511899  0.16466811     0.28400
H1304       H  0.78919463  0.22734256  0.04302034     0.28400
H1305       H  0.81467929  0.21453986  0.10873512     0.19000
H1306       H  0.94479462  0.31434369  0.09775160     0.19000
C1307       C  0.94855090  0.33357121  0.50623569    -0.06900
C1308       C  0.96931811  0.31518314  0.01198215    -0.18000
C1309       C  0.50562619  0.33217815  0.00465159     0.10300
C1310       C  0.52693956  0.36999703  0.49918887    -0.06800
C1311       C  0.50861686  0.39014629  0.49948537    -0.18000
C1312       C  0.97063913  0.37299109  0.49603032     0.10400
S1313       S  0.52255192  0.30038180  0.00237352    -0.33000
S1314       S  0.95312758  0.40122739  0.46996174    -0.33000
H1315       H  0.98559820  0.43691695  0.47243463     0.28400
H1316       H  0.49316940  0.26922207  0.02564198     0.28400
H1317       H  0.95413746  0.28546083  0.01954401     0.19000
H1318       H  0.52383198  0.42039403  0.49841419     0.19000
C1319       C  0.84448318  0.36885813  0.50188883    -0.06900
C1320       C  0.87049696  0.37489239  0.04049249    -0.18000
C1321       C  0.89190092  0.35816575  0.04201263     0.10300
C1322       C  0.88634896  0.33225258  0.50418888    -0.06800
C1323       C  0.86292364  0.32857851  0.46280367    -0.18000
C1324       C  0.84681609  0.35038100  0.45825695     0.10400
S1325       S  0.92473132  0.37146882  0.09426001    -0.33000
S1326       S  0.83696479  0.35926509  0.39428873    -0.33000
H1327       H  0.84633298  0.33618654  0.36820757     0.28400
H1328       H  0.92566264  0.40453212  0.10876263     0.28400
H1329       H  0.87259577  0.39221414  0.07219555     0.19000
H1330       H  0.85641477  0.30870825  0.43267864     0.19000
C1331       C  0.90551728  0.30851401  0.50705273    -0.03200
C1332       C  0.57073810  0.39243683  0.99251659    -0.03200
C1333       C  0.65366577  0.06169879  0.99885197    -0.03200
C1334       C  0.56740949  0.14019012  0.49761515    -0.03200
C1335       C  0.90164270  0.05716665  0.00443653    -0.03200
C1336       C  0.81844822  0.38326926  0.00715451    -0.03200
O1337       O  0.63711732  0.24119247  0.71348555    -0.86100
O1338       O  0.69946490  0.30581323  0.68842791    -0.83100
C1339       C  0.72044197  0.34038322  0.67988709     0.97400
O1340       O  0.72126534  0.36513825  0.70862500    -0.83200
O1341       O  0.65768048  0.36237198  0.68229590    -0.85800
C1342       C  0.62384066  0.34919658  0.67588202     1.01900
O1343       O  0.60146406  0.32615963  0.70699388    -0.78600
O1344       O  0.60223982  0.26174300  0.68513719    -0.78800
C1345       C  0.61472992  0.24030338  0.68052141     1.01800
O1346       O  0.65391350  0.26316113  0.81808226    -0.86100
O1347       O  0.71997247  0.32426844  0.79394999    -0.83200
C1348       C  0.72279122  0.34949513  0.82365434     0.97400
O1349       O  0.70515220  0.36553318  0.81441813    -0.83200
O1350       O  0.64584499  0.37048002  0.78732970    -0.85800
C1351       C  0.62145343  0.34867151  0.81737116     1.01900
O1352       O  0.60590736  0.31326668  0.81255304    -0.78600
O1353       O  0.59813221  0.24434849  0.79147530    -0.78800
C1354       C  0.61983649  0.24189321  0.82254725     1.01800
Cr1355     Cr  0.67598842  0.28578966  0.75331767     1.93700
Cr1356     Cr  0.68054751  0.36211317  0.74832335     1.93200
Cr1357     Cr  0.60562518  0.28813060  0.74917882     1.39100
O1358       O  0.65408038  0.31208841  0.75049172    -1.23800
O1359       O  0.77574723  0.14188730  0.81934372    -0.86100
O1360       O  0.83794281  0.20860631  0.79652088    -0.83100
C1361       C  0.86183504  0.20902850  0.82644238     0.97400
O1362       O  0.87299754  0.18673510  0.81962469    -0.83200
O1363       O  0.87230066  0.12301015  0.79071301    -0.85800
C1364       C  0.85048275  0.09844073  0.82094786     1.01900
O1365       O  0.81669889  0.08594841  0.81616537    -0.78600
O1366       O  0.75286528  0.08397478  0.79246712    -0.78800
C1367       C  0.75408543  0.10697814  0.82512297     1.01800
O1368       O  0.75427641  0.12705318  0.71234876    -0.86100
O1369       O  0.81955919  0.19013128  0.69076360    -0.83200
C1370       C  0.85356346  0.21141612  0.68584262     0.97400
O1371       O  0.87551425  0.20835922  0.71566612    -0.83200
O1372       O  0.86798336  0.14104982  0.68700001    -0.85800
C1373       C  0.85430925  0.10607068  0.68088851     1.01900
O1374       O  0.83046386  0.08279251  0.71064505    -0.78600
O1375       O  0.77112615  0.08876368  0.68637524    -0.78800
C1376       C  0.75266618  0.10405029  0.67932454     1.01800
Cr1377     Cr  0.79833912  0.16487269  0.75470022     1.93700
Cr1378     Cr  0.86870953  0.16307538  0.75325863     1.93200
Cr1379     Cr  0.79453602  0.08903627  0.75153813     1.39100
O1380       O  0.82054525  0.13903595  0.75313256    -1.23800
C1381       C  0.74507741  0.35149120  0.63685246    -0.06900
C1382       C  0.76327411  0.33226651  0.62918236    -0.18000
C1383       C  0.78637887  0.34004927  0.58848192     0.10300
C1384       C  0.79242056  0.36940862  0.55365096    -0.06800
C1385       C  0.77154456  0.38662102  0.56080644    -0.18000
C1386       C  0.74896067  0.37876148  0.60193325     0.10400
S1387       S  0.80479000  0.30969506  0.58398685    -0.33000
S1388       S  0.72496361  0.40354676  0.60875881    -0.33000
H1389       H  0.73530472  0.42331528  0.56305027     0.28400
H1390       H  0.78012353  0.28029192  0.61498704     0.28400
H1391       H  0.75943953  0.31089529  0.65612659     0.19000
H1392       H  0.77447159  0.40816354  0.53494046     0.19000
C1393       C  0.79089039  0.37365589  0.96017641    -0.06900
C1394       C  0.78903060  0.40267505  0.93400285    -0.18000
C1395       C  0.76880843  0.39614844  0.88870837     0.10300
C1396       C  0.74618208  0.35903948  0.87018631    -0.06800
C1397       C  0.74370726  0.32937244  0.89865113    -0.18000
C1398       C  0.76481566  0.33588230  0.94344512     0.10400
S1399       S  0.77459859  0.43680807  0.85538425    -0.33000
S1400       S  0.75778571  0.29490677  0.97684427    -0.33000
H1401       H  0.74613972  0.27142909  0.43452497     0.28400
H1402       H  0.77292841  0.42222368  0.80681256     0.28400
H1403       H  0.80326410  0.43126905  0.94821853     0.19000
H1404       H  0.72457481  0.30066303  0.88589647     0.19000
C1405       C  0.88776098  0.06383346  0.95238505    -0.06900
C1406       C  0.91296334  0.08904976  0.91706927    -0.18000
C1407       C  0.90207417  0.10021394  0.87363984     0.10300
C1408       C  0.86437139  0.08415727  0.86205722    -0.06800
C1409       C  0.83893728  0.05484388  0.89244152    -0.18000
C1410       C  0.84979407  0.04439086  0.93712193     0.10400
S1411       S  0.93766058  0.13533241  0.83460520    -0.33000
S1412       S  0.81297751  0.00701467  0.47504490    -0.33000
H1413       H  0.78318901  0.99719283  0.44136403     0.28400
H1414       H  0.96647660  0.14933999  0.87120243     0.28400
H1415       H  0.94186321  0.10053858  0.92232899     0.19000
H1416       H  0.81004061  0.04149550  0.88280956     0.19000
C1417       C  0.86586828  0.09267710  0.63773797    -0.06900
C1418       C  0.85609900  0.09847402  0.58958622    -0.18000
C1419       C  0.86721946  0.08888884  0.54576891     0.10300
C1420       C  0.88793488  0.07021100  0.54961111    -0.06800
C1421       C  0.90048748  0.06837833  0.59928599    -0.18000
C1422       C  0.88895786  0.07810645  0.64272081     0.10400
S1423       S  0.86114886  0.11231099  0.99138113    -0.33000
S1424       S  0.90471152  0.07121736  0.70339326    -0.33000
H1425       H  0.90696838  0.10250700  0.72728596     0.28400
H1426       H  0.82716379  0.10698638  0.00450578     0.28400
H1427       H  0.84094267  0.11273034  0.58638057     0.19000
H1428       H  0.91846060  0.05745384  0.60446916     0.19000
C1429       C  0.88467267  0.01272411  0.00746700    -0.06900
C1430       C  0.86714398  0.49028280  0.55192397    -0.18000
C1431       C  0.85202039  0.45136923  0.55687055     0.10300
C1432       C  0.84582339  0.42729002  0.01276805    -0.06800
C1433       C  0.86601874  0.44688476  0.97043207    -0.18000
C1434       C  0.88287872  0.48622856  0.96585806     0.10400
S1435       S  0.84567780  0.43344819  0.62087963    -0.33000
S1436       S  0.90934952  0.01073887  0.90867213    -0.33000
H1437       H  0.89722391  0.97708143  0.88124872     0.28400
H1438       H  0.85975008  0.46783337  0.64743903     0.28400
H1439       H  0.86107337  0.00273922  0.58262062     0.19000
H1440       H  0.86525168  0.43062541  0.93814230     0.19000
C1441       C  0.58332704  0.16933842  0.54446858    -0.06900
C1442       C  0.59690913  0.16109045  0.58889362    -0.18000
C1443       C  0.60563412  0.18205127  0.63395020     0.10300
C1444       C  0.60401274  0.21504961  0.63537719    -0.06800
C1445       C  0.59467951  0.22645516  0.59078538    -0.18000
C1446       C  0.58477621  0.20512107  0.54584676     0.10400
S1447       S  0.61727379  0.16383542  0.68861110    -0.33000
S1448       S  0.57374722  0.22606864  0.49286682    -0.33000
H1449       H  0.54110681  0.19549361  0.97951787     0.28400
H1450       H  0.59578831  0.17014555  0.72147124     0.28400
H1451       H  0.60038416  0.13759405  0.59041543     0.19000
H1452       H  0.59577241  0.25311176  0.59090714     0.19000
C1453       C  0.60585600  0.21412434  0.86450163    -0.06900
C1454       C  0.63098560  0.21801894  0.90279314    -0.18000
C1455       C  0.62032157  0.19473729  0.94496454     0.10300
C1456       C  0.58255992  0.16630431  0.95090648    -0.06800
C1457       C  0.55772223  0.16129693  0.91078164    -0.18000
C1458       C  0.56887056  0.18441237  0.86812806     0.10400
S1459       S  0.65436925  0.19900520  0.48829024    -0.33000
S1460       S  0.53436005  0.17345050  0.81937726    -0.33000
H1461       H  0.55612645  0.17413950  0.78023588     0.28400
H1462       H  0.68362371  0.21677273  0.45524666     0.28400
H1463       H  0.65962158  0.23965503  0.89995555     0.19000
H1464       H  0.52915246  0.13940326  0.91208671     0.19000
C1465       C  0.94510799  0.07890606  0.00766173    -0.06900
C1466       C  0.96406203  0.05968294  0.00170565    -0.18000
C1467       C  0.50333939  0.08073826  0.97954502     0.10300
C1468       C  0.52393406  0.11682796  0.49922170    -0.06800
C1469       C  0.50562810  0.13457562  0.51661526    -0.18000
C1470       C  0.96684994  0.11620712  0.51328349     0.10400
S1471       S  0.51909145  0.05982609  0.93481798    -0.33000
S1472       S  0.94971708  0.14759671  0.51892879    -0.33000
H1473       H  0.97819699  0.17828991  0.49356006     0.28400
H1474       H  0.48493030  0.02812630  0.92044862     0.28400
H1475       H  0.94981811  0.02936530  0.00110599     0.19000
H1476       H  0.52048591  0.16320971  0.52810871     0.19000
C1477       C  0.67966176  0.07786207  0.54610419    -0.06900
C1478       C  0.70409722  0.06441692  0.55065338    -0.18000
C1479       C  0.72819514  0.07244594  0.59221242     0.10300
C1480       C  0.72866471  0.09481835  0.63272336    -0.06800
C1481       C  0.70638028  0.11013471  0.62808117    -0.21400
C1482       C  0.68292249  0.10326160  0.58589211     0.10400
S1483       S  0.75703941  0.05248517  0.59209853    -0.33000
S1484       S  0.65995987  0.12909602  0.59118210    -0.33000
H1485       H  0.65889735  0.13798203  0.54078926     0.28400
H1486       H  0.75163202  0.04152860  0.54078482     0.28400
H1487       H  0.70289354  0.04527282  0.52205304     0.19000
H1488       H  0.70739380  0.12832473  0.65819357     0.19000
C1489       C  0.72954178  0.09403971  0.86967339    -0.06900
C1490       C  0.72871847  0.12149604  0.89933358    -0.18000
C1491       C  0.70642473  0.11231721  0.94133158     0.10300
C1492       C  0.68084544  0.07368886  0.95321374    -0.06800
C1493       C  0.68412461  0.04646851  0.92509711    -0.18000
C1494       C  0.70796134  0.05606295  0.88475347     0.10400
S1495       S  0.71159409  0.15157647  0.97739259    -0.33000
S1496       S  0.71101913  0.01843905  0.85659154    -0.33000
H1497       H  0.74951413  0.03845673  0.86034737     0.28400
H1498       H  0.72479814  0.17889149  0.43909961     0.28400
H1499       H  0.74585109  0.15092253  0.88959958     0.19000
H1500       H  0.66977522  0.01721835  0.93577834     0.19000
C1501       C  0.58583263  0.11411800  0.99743185    -0.06900
C1502       C  0.60429466  0.11380442  0.95357596    -0.18000
C1503       C  0.62220951  0.09386150  0.94964664     0.10300
C1504       C  0.62608712  0.07574867  0.99282071    -0.06800
C1505       C  0.59867335  0.06693498  0.53021353    -0.18000
C1506       C  0.57756616  0.08418130  0.53215653     0.10400
S1507       S  0.63147558  0.08583917  0.88600749    -0.33000
S1508       S  0.54407665  0.06640751  0.58134121    -0.33000
H1509       H  0.53559109  0.09457981  0.58260589     0.28400
H1510       H  0.63785029  0.12009968  0.86583490     0.28400
H1511       H  0.60234445  0.12652947  0.91908845     0.19000
H1512       H  0.59653102  0.04848591  0.56064306     0.19000
C1513       C  0.58178618  0.38397535  0.94043451    -0.06900
C1514       C  0.61978994  0.40377586  0.93068493    -0.18000
C1515       C  0.63372229  0.39395290  0.88999875     0.10300
C1516       C  0.60929702  0.36434035  0.85691815    -0.06800
C1517       C  0.57175893  0.34834024  0.86169567    -0.18000
C1518       C  0.55745190  0.35886987  0.90078565     0.10400
S1519       S  0.68262515  0.41582622  0.88494661    -0.33000
S1520       S  0.50953606  0.34377229  0.89128927    -0.33000
H1521       H  0.49881952  0.31126256  0.86184560     0.28400
H1522       H  0.69308056  0.44015255  0.92723508     0.28400
H1523       H  0.63893527  0.42464235  0.95796663     0.19000
H1524       H  0.55346089  0.32813612  0.83306729     0.19000
C1525       C  0.58381247  0.37669960  0.53963170    -0.06900
C1526       C  0.57195934  0.37938588  0.58832135    -0.18000
C1527       C  0.58476483  0.37141161  0.63304916     0.10300
C1528       C  0.61018727  0.35981351  0.63077411    -0.06800
C1529       C  0.62041616  0.35430871  0.58361777    -0.18000
C1530       C  0.60604374  0.35987722  0.53825194     0.10400
S1531       S  0.56856440  0.37803933  0.69192503    -0.33000
S1532       S  0.61070008  0.33646237  0.48378835    -0.33000
H1533       H  0.62360772  0.31590294  0.00988978     0.28400
H1534       H  0.60134882  0.39025207  0.72004123     0.28400
H1535       H  0.55368935  0.38991462  0.59180878     0.19000
H1536       H  0.63761913  0.34234864  0.58267646     0.19000
C1537       C  0.58967053  0.43727917  0.99573810    -0.06900
C1538       C  0.61057385  0.45681524  0.53879848    -0.18000
C1539       C  0.62535076  0.49565363  0.54491479     0.10300
C1540       C  0.62819393  0.01720103  0.00206553    -0.06800
C1541       C  0.60623568  0.49912949  0.96016356    -0.18000
C1542       C  0.58691374  0.45945526  0.95605977     0.10400
S1543       S  0.63271558  0.01188672  0.60944585    -0.33000
S1544       S  0.56008748  0.43912177  0.89820964    -0.33000
H1545       H  0.55692929  0.47005260  0.88418224     0.28400
H1546       H  0.61539913  0.97659397  0.63327429     0.28400
H1547       H  0.61673949  0.44382441  0.56927469     0.19000
H1548       H  0.60505489  0.01303380  0.92775452     0.19000
C1549       C  0.87632603  0.23505151  0.87050418    -0.06900
C1550       C  0.87478615  0.21954525  0.91781814    -0.18000
C1551       C  0.88620159  0.24158434  0.96217850     0.10300
C1552       C  0.89771512  0.28095993  0.95989739    -0.06800
C1553       C  0.90470526  0.29678885  0.91098450    -0.18000
C1554       C  0.89268193  0.27443786  0.86687557     0.10400
S1555       S  0.89047328  0.21789651  0.01717796    -0.33000
S1556       S  0.89907243  0.29808378  0.80744273    -0.33000
H1557       H  0.90265040  0.27183130  0.77908258     0.28400
H1558       H  0.85728548  0.18172841  0.50562687     0.28400
H1559       H  0.86505187  0.18968226  0.91998796     0.19000
H1560       H  0.91748882  0.32703402  0.90709938     0.19000
C1561       C  0.86736481  0.23964947  0.64459679    -0.06900
C1562       C  0.84212864  0.23687500  0.60703955    -0.18000
C1563       C  0.85327699  0.25879887  0.56335209     0.10300
C1564       C  0.89124872  0.28590949  0.55700799    -0.06800
C1565       C  0.91563916  0.29126794  0.59799407    -0.18000
C1566       C  0.90468755  0.26799827  0.64026175     0.10400
S1567       S  0.81864425  0.24790726  0.51409252    -0.33000
S1568       S  0.93943266  0.27578294  0.68768837    -0.33000
H1569       H  0.97034090  0.29982714  0.65951625     0.28400
H1570       H  0.79037070  0.21401616  0.53394861     0.28400
H1571       H  0.81339078  0.21586991  0.61057758     0.19000
H1572       H  0.94386585  0.31387986  0.59761647     0.19000
C1573       C  0.95004663  0.33412010  0.00577597    -0.06900
C1574       C  0.96729177  0.31402629  0.51132987    -0.18000
C1575       C  0.50473238  0.33024926  0.50664712     0.10300
C1576       C  0.52804792  0.37191160  0.99736064    -0.06800
C1577       C  0.50970286  0.39208286  0.99555379    -0.18000
C1578       C  0.97171741  0.37329888  0.99375226     0.10400
S1579       S  0.52187106  0.29864005  0.50428276    -0.33000
S1580       S  0.95350858  0.40051941  0.96643993    -0.33000
H1581       H  0.98621195  0.43037779  0.94734769     0.28400
H1582       H  0.49295445  0.26776940  0.52868843     0.28400
H1583       H  0.95184661  0.28422471  0.51826137     0.19000
H1584       H  0.52478108  0.42230686  0.99331828     0.19000
C1585       C  0.84454186  0.36764519  0.00112164    -0.06900
C1586       C  0.86992671  0.37545600  0.54170660    -0.18000
C1587       C  0.89081295  0.35815686  0.54343165     0.10300
C1588       C  0.88737351  0.33198301  0.00323912    -0.06800
C1589       C  0.86352452  0.32773905  0.96208032    -0.18000
C1590       C  0.84687034  0.34904575  0.95759654     0.10400
S1591       S  0.92298766  0.37041969  0.59636826    -0.33000
S1592       S  0.83616686  0.35689169  0.89363188    -0.33000
H1593       H  0.85574581  0.34354243  0.86828772     0.28400
H1594       H  0.92116169  0.40093254  0.61548825     0.28400
H1595       H  0.87184412  0.39260208  0.57351027     0.19000
H1596       H  0.85699267  0.30779433  0.93198285     0.19000
C1597       C  0.90476670  0.80907912  0.00680274    -0.03200
C1598       C  0.56975640  0.89027861  0.49231105    -0.03200
C1599       C  0.65302676  0.56214018  0.49830038    -0.03200
C1600       C  0.56690294  0.63982282  0.99788036    -0.03200
C1601       C  0.90124027  0.55489688  0.50458791    -0.03200
C1602       C  0.81921692  0.88406630  0.50713967    -0.03200
O1603       O  0.63760280  0.74117154  0.21199043    -0.86100
O1604       O  0.70028283  0.80599161  0.18826486    -0.83100
C1605       C  0.72058629  0.84063690  0.17923660     0.97400
O1606       O  0.72099054  0.86515756  0.20798492    -0.83200
O1607       O  0.65698883  0.86135307  0.18234611    -0.85800
C1608       C  0.62315067  0.84818281  0.17610090     1.01900
O1609       O  0.60096819  0.82535270  0.20755777    -0.78600
O1610       O  0.60237305  0.76159255  0.18439440    -0.78800
C1611       C  0.61493466  0.74028002  0.17950998     1.01800
O1612       O  0.65332163  0.76135122  0.31730168    -0.86100
O1613       O  0.71963277  0.82324331  0.29459762    -0.83200
C1614       C  0.72262487  0.84878163  0.32387012     0.97400
O1615       O  0.70504016  0.86486213  0.31428163    -0.83200
O1616       O  0.64493931  0.86871185  0.28756120    -0.85800
C1617       C  0.62066677  0.84662165  0.31756085     1.01900
O1618       O  0.60556706  0.81128730  0.31268946    -0.78600
O1619       O  0.59779447  0.74259243  0.28967109    -0.78800
C1620       C  0.61915022  0.73992875  0.32113087     1.01800
Cr1621     Cr  0.67609824  0.78511950  0.25289608     1.93700
Cr1622     Cr  0.68007917  0.86123579  0.24825937     1.93200
Cr1623     Cr  0.60544919  0.78702756  0.24876944     1.39100
O1624       O  0.65396977  0.81120202  0.25023974    -1.23800
O1625       O  0.77662877  0.64154704  0.32024929    -0.86100
O1626       O  0.83875483  0.70857457  0.29741469    -0.83100
C1627       C  0.86284158  0.70920490  0.32706884     0.97400
O1628       O  0.87435238  0.68724911  0.31991309    -0.83200
O1629       O  0.87335659  0.62318090  0.29183561    -0.85800
C1630       C  0.85137133  0.59816394  0.32158977     1.01900
O1631       O  0.81755915  0.58567362  0.31670938    -0.78600
O1632       O  0.75357573  0.58382408  0.29266331    -0.78800
C1633       C  0.75439473  0.60665463  0.32524671     1.01800
O1634       O  0.75527108  0.62708604  0.21340275    -0.86100
O1635       O  0.82032048  0.69052573  0.19176649    -0.83200
C1636       C  0.85427528  0.71183354  0.18631166     0.97400
O1637       O  0.87647429  0.70839037  0.21527695    -0.83200
O1638       O  0.86913624  0.64074725  0.18769580    -0.85800
C1639       C  0.85540402  0.60572131  0.18191465     1.01900
O1640       O  0.83144148  0.58262974  0.21162389    -0.78600
O1641       O  0.77239137  0.58918966  0.18675995    -0.78800
C1642       C  0.75387417  0.60446322  0.17998948     1.01800
Cr1643     Cr  0.79928161  0.66485665  0.25567271     1.93700
Cr1644     Cr  0.86981764  0.66319035  0.25369335     1.93200
Cr1645     Cr  0.79552137  0.58906618  0.25207451     1.39100
O1646       O  0.82161481  0.63911059  0.25380251    -1.23800
C1647       C  0.74509929  0.85217248  0.13569628    -0.06900
C1648       C  0.76441330  0.83410939  0.12838404    -0.18000
C1649       C  0.78776306  0.84250658  0.08781839     0.10300
C1650       C  0.79249899  0.87081932  0.05191421    -0.06800
C1651       C  0.77049204  0.88682551  0.05856910    -0.18000
C1652       C  0.74779090  0.87854088  0.09989366     0.10400
S1653       S  0.80647632  0.81252838  0.08378241    -0.33000
S1654       S  0.72187099  0.90135030  0.10563906    -0.33000
H1655       H  0.73100725  0.92008255  0.05910281     0.28400
H1656       H  0.80787645  0.80634664  0.13591618     0.28400
H1657       H  0.76071031  0.81253043  0.15490266     0.19000
H1658       H  0.77251924  0.90767352  0.03207111     0.19000
C1659       C  0.79174942  0.87411719  0.45991631    -0.06900
C1660       C  0.78974329  0.90292419  0.43336978    -0.18000
C1661       C  0.76890790  0.89595974  0.38850880     0.10300
C1662       C  0.74629469  0.85872102  0.37032959    -0.06800
C1663       C  0.74430032  0.82932237  0.39893957    -0.18000
C1664       C  0.76569120  0.83619268  0.44356194     0.10400
S1665       S  0.77371840  0.93627661  0.35539827    -0.33000
S1666       S  0.75872605  0.79539597  0.47746147    -0.33000
H1667       H  0.74808521  0.77251897  0.93500382     0.28400
H1668       H  0.77231379  0.92187418  0.30679356     0.28400
H1669       H  0.80415057  0.93167348  0.44708355     0.19000
H1670       H  0.72519412  0.80050370  0.38655925     0.19000
C1671       C  0.88779164  0.56196117  0.45246067    -0.06900
C1672       C  0.91331807  0.58823331  0.41830271    -0.18000
C1673       C  0.90271822  0.59975335  0.37490149     0.10300
C1674       C  0.86508815  0.58331136  0.36231657    -0.06800
C1675       C  0.83949827  0.55314114  0.39153190    -0.18000
C1676       C  0.85001253  0.54225654  0.43619373     0.10400
S1677       S  0.93855765  0.63604536  0.33738267    -0.33000
S1678       S  0.81355695  0.50526914  0.97510503    -0.33000
H1679       H  0.78395119  0.49456517  0.94071582     0.28400
H1680       H  0.96684682  0.65004896  0.37479422     0.28400
H1681       H  0.94228133  0.60069892  0.42482153     0.19000
H1682       H  0.81068358  0.53953304  0.38113613     0.19000
C1683       C  0.86660501  0.59187399  0.13888414    -0.06900
C1684       C  0.85500466  0.59563907  0.09089431    -0.18000
C1685       C  0.86617493  0.58623606  0.04698141     0.10300
C1686       C  0.88762169  0.56834784  0.05060883    -0.06800
C1687       C  0.90141687  0.56795866  0.10012418    -0.18000
C1688       C  0.89097432  0.57886692  0.14357591     0.10400
S1689       S  0.85971014  0.60903738  0.49137838    -0.33000
S1690       S  0.91029168  0.57618652  0.20377002    -0.33000
H1691       H  0.91202548  0.60790052  0.22550313     0.28400
H1692       H  0.82577806  0.60362332  0.50500548     0.28400
H1693       H  0.83902426  0.60900432  0.08779619     0.19000
H1694       H  0.92044631  0.55832426  0.10508372     0.19000
C1695       C  0.88445304  0.51047436  0.50779960    -0.06900
C1696       C  0.86667759  0.99231967  0.05105358    -0.18000
C1697       C  0.85122090  0.95327919  0.05553867     0.10300
C1698       C  0.84604711  0.92828539  0.51288674    -0.06800
C1699       C  0.86718201  0.94817287  0.47123008    -0.18000
C1700       C  0.88481914  0.98773099  0.46726089     0.10400
S1701       S  0.84431741  0.93516129  0.11940500    -0.33000
S1702       S  0.90637140  0.50729689  0.40733707    -0.33000
H1703       H  0.90911311  0.47656431  0.39156766     0.28400
H1704       H  0.86076411  0.96980519  0.14599369     0.28400
H1705       H  0.86661377  0.50222203  0.08563036     0.19000
H1706       H  0.86703073  0.93199769  0.43928145     0.19000
C1707       C  0.58249920  0.66886463  0.04460333    -0.06900
C1708       C  0.59675321  0.66105304  0.08872942    -0.18000
C1709       C  0.60539100  0.68199139  0.13362188     0.10300
C1710       C  0.60376584  0.71493335  0.13475319    -0.06800
C1711       C  0.59377565  0.72599746  0.09043422    -0.18000
C1712       C  0.58330295  0.70429166  0.04588943     0.10400
S1713       S  0.61659930  0.66366537  0.18861945    -0.33000
S1714       S  0.57037542  0.72404027  0.99343323    -0.33000
H1715       H  0.56382210  0.74834081  0.51881498     0.28400
H1716       H  0.59500213  0.67014889  0.22120354     0.28400
H1717       H  0.60084686  0.63797077  0.09030599     0.19000
H1718       H  0.59459451  0.75251933  0.09048158     0.19000
C1719       C  0.60441285  0.71187449  0.36292083    -0.06900
C1720       C  0.62876568  0.71553264  0.40225272    -0.18000
C1721       C  0.61722646  0.69199392  0.44429715     0.10300
C1722       C  0.57925739  0.66376609  0.44913554    -0.06800
C1723       C  0.55528006  0.65874305  0.40776412    -0.18000
C1724       C  0.56738381  0.68187509  0.36491550     0.10400
S1725       S  0.65372734  0.70025986  0.98969234    -0.33000
S1726       S  0.53505152  0.67135301  0.31275487    -0.33000
H1727       H  0.50868839  0.63461838  0.32753317     0.28400
H1728       H  0.68391364  0.72289701  0.95970682     0.28400
H1729       H  0.65743069  0.73723678  0.40022832     0.19000
H1730       H  0.52681682  0.63652949  0.40828753     0.19000
C1731       C  0.94474630  0.57679726  0.50802575    -0.06900
C1732       C  0.96391438  0.55841915  0.49727389    -0.18000
C1733       C  0.49868783  0.57459873  0.48805468     0.10300
C1734       C  0.52337229  0.61590234  0.99945863    -0.06800
C1735       C  0.50473718  0.63306783  0.01756981    -0.18000
C1736       C  0.96702356  0.61408177  0.02282524     0.10400
S1737       S  0.51119026  0.54650224  0.45200463    -0.33000
S1738       S  0.95046391  0.64555003  0.03434644    -0.33000
H1739       H  0.98364039  0.68009843  0.02908811     0.28400
H1740       H  0.52800844  0.57412887  0.41479917     0.28400
H1741       H  0.95000814  0.52829377  0.49355222     0.19000
H1742       H  0.51908917  0.66115217  0.03189371     0.19000
C1743       C  0.68152893  0.57976987  0.04651155    -0.06900
C1744       C  0.70541204  0.56565674  0.05119998    -0.18000
C1745       C  0.72918330  0.57310048  0.09290689     0.10300
C1746       C  0.73011779  0.59579477  0.13327265    -0.06800
C1747       C  0.70861303  0.61204281  0.12830812    -0.21400
C1748       C  0.68525679  0.60551232  0.08607006     0.10400
S1749       S  0.75654866  0.55147113  0.09332352    -0.33000
S1750       S  0.66272337  0.63185804  0.09104603    -0.33000
H1751       H  0.66120214  0.64019116  0.04052135     0.28400
H1752       H  0.75402604  0.54416913  0.04099185     0.28400
H1753       H  0.70380916  0.54616549  0.02283771     0.19000
H1754       H  0.71005441  0.63056730  0.15824991     0.19000
C1755       C  0.72880172  0.59362959  0.36878062    -0.06900
C1756       C  0.72895465  0.62124906  0.39940646    -0.18000
C1757       C  0.70564285  0.61226067  0.44025459     0.10300
C1758       C  0.67970094  0.57371800  0.45203568    -0.06800
C1759       C  0.68168143  0.54618603  0.42263009    -0.18000
C1760       C  0.70498620  0.55545013  0.38166263     0.10400
S1761       S  0.71050248  0.65152451  0.47611156    -0.33000
S1762       S  0.70352694  0.51676177  0.34880990    -0.33000
H1763       H  0.74152094  0.53211717  0.35466686     0.28400
H1764       H  0.74333541  0.68164494  0.95469449     0.28400
H1765       H  0.74788017  0.65067620  0.39143110     0.19000
H1766       H  0.66633503  0.51674316  0.43215934     0.19000
C1767       C  0.58194359  0.61136335  0.49570072    -0.06900
C1768       C  0.59982387  0.61053551  0.45158431    -0.18000
C1769       C  0.61975461  0.59258793  0.44858381     0.10300
C1770       C  0.62510477  0.57590151  0.49243620    -0.06800
C1771       C  0.60053553  0.56885789  0.03112741    -0.18000
C1772       C  0.57847537  0.58498830  0.03256524     0.10400
S1773       S  0.63026311  0.58554615  0.38522530    -0.33000
S1774       S  0.54465341  0.56646566  0.08129423    -0.33000
H1775       H  0.53571217  0.59429265  0.08276940     0.28400
H1776       H  0.63475390  0.61900610  0.36478608     0.28400
H1777       H  0.59644219  0.62188908  0.41662379     0.19000
H1778       H  0.59878615  0.55073560  0.06175613     0.19000
C1779       C  0.58052915  0.88161226  0.44021378    -0.06900
C1780       C  0.61837578  0.90223808  0.42946841    -0.18000
C1781       C  0.63228003  0.89288234  0.38837384     0.10300
C1782       C  0.60812414  0.86187567  0.35704064    -0.06800
C1783       C  0.57052490  0.84444926  0.36311913    -0.18000
C1784       C  0.55613344  0.85538997  0.40159319     0.10400
S1785       S  0.68113139  0.91777345  0.38031110    -0.33000
S1786       S  0.50811670  0.83972322  0.39197854    -0.33000
H1787       H  0.49750730  0.80620499  0.36501508     0.28400
H1788       H  0.69096346  0.94540052  0.41822646     0.28400
H1789       H  0.63757836  0.92381343  0.45595945     0.19000
H1790       H  0.55220280  0.82316008  0.33557598     0.19000
C1791       C  0.58376967  0.87572081  0.03897119    -0.06900
C1792       C  0.57178620  0.87858812  0.08751062    -0.18000
C1793       C  0.58437902  0.87064427  0.13253996     0.10300
C1794       C  0.60937222  0.85846160  0.13070433    -0.06800
C1795       C  0.61945733  0.85250265  0.08370918    -0.18000
C1796       C  0.60540477  0.85817236  0.03808876     0.10400
S1797       S  0.56881536  0.87846300  0.19120523    -0.33000
S1798       S  0.61062751  0.83520219  0.98349660    -0.33000
H1799       H  0.64572477  0.84197228  0.49888223     0.28400
H1800       H  0.60150730  0.89015234  0.21929747     0.28400
H1801       H  0.55375781  0.88944656  0.09063789     0.19000
H1802       H  0.63686777  0.84078423  0.08310812     0.19000
C1803       C  0.58869946  0.93512890  0.49525120    -0.06900
C1804       C  0.61054937  0.95600228  0.03833372    -0.18000
C1805       C  0.62524638  0.99483154  0.04469212     0.10300
C1806       C  0.62758554  0.51771901  0.50225546    -0.06800
C1807       C  0.60465305  0.99679682  0.45955691    -0.18000
C1808       C  0.58544729  0.95706817  0.45568871     0.10400
S1809       S  0.63385801  0.51423768  0.11026175    -0.33000
S1810       S  0.55784928  0.93616570  0.39851386    -0.33000
H1811       H  0.55428953  0.96689120  0.38474348     0.28400
H1812       H  0.61891892  0.47933702  0.13477168     0.28400
H1813       H  0.61636506  0.94294351  0.06907235     0.19000
H1814       H  0.60279664  0.51304981  0.42891788     0.19000
C1815       C  0.87697503  0.73499995  0.37135402    -0.06900
C1816       C  0.87479234  0.71924658  0.41863723    -0.18000
C1817       C  0.88569755  0.74105999  0.46319633     0.10300
C1818       C  0.89719258  0.78048922  0.46108042    -0.06800
C1819       C  0.90455441  0.79649307  0.41225863    -0.18000
C1820       C  0.89327447  0.77437391  0.36798476     0.10400
S1821       S  0.88966001  0.71708634  0.51815478    -0.33000
S1822       S  0.90070510  0.79831388  0.30861756    -0.33000
H1823       H  0.90446994  0.77204268  0.28056829     0.28400
H1824       H  0.85449746  0.68136705  0.00744138     0.28400
H1825       H  0.86505506  0.68937608  0.42056597     0.19000
H1826       H  0.91736632  0.82675929  0.40853526     0.19000
C1827       C  0.86764387  0.74054849  0.14530971    -0.06900
C1828       C  0.84206705  0.73823523  0.10856921    -0.18000
C1829       C  0.85284738  0.76033941  0.06483775     0.10300
C1830       C  0.89080210  0.78708642  0.05751007    -0.06800
C1831       C  0.91548894  0.79237093  0.09808303    -0.18000
C1832       C  0.90487725  0.76897640  0.14035295     0.10400
S1833       S  0.81787470  0.74974225  0.01622787    -0.33000
S1834       S  0.93997566  0.77679437  0.18707733    -0.33000
H1835       H  0.97029667  0.79787308  0.15646831     0.28400
H1836       H  0.78874975  0.71764719  0.03830782     0.28400
H1837       H  0.81337301  0.71728317  0.11259904     0.19000
H1838       H  0.94373674  0.81492166  0.09731162     0.19000
C1839       C  0.94969992  0.83361312  0.50654760    -0.06900
C1840       C  0.96658747  0.81447811  0.01086342    -0.18000
C1841       C  0.50482256  0.82961673  0.00529496     0.10300
C1842       C  0.52711983  0.86981020  0.49768584    -0.06800
C1843       C  0.50899898  0.89017763  0.49611972    -0.18000
C1844       C  0.97157029  0.87283684  0.49468713     0.10400
S1845       S  0.52190320  0.79789280  0.00357875    -0.33000
S1846       S  0.95366348  0.90086224  0.46939160    -0.33000
H1847       H  0.98591683  0.92959891  0.44781597     0.28400
H1848       H  0.49050137  0.76465534  0.01925562     0.28400
H1849       H  0.95082062  0.78460159  0.01742539     0.19000
H1850       H  0.52429870  0.92040482  0.49491338     0.19000
C1851       C  0.84559110  0.86874688  0.50143256    -0.06900
C1852       C  0.87081965  0.87787029  0.04009745    -0.18000
C1853       C  0.89120191  0.85992582  0.04221888     0.10300
C1854       C  0.88723876  0.83180564  0.50468825    -0.06800
C1855       C  0.86366007  0.82781068  0.46332932    -0.18000
C1856       C  0.84765063  0.84968793  0.45827752     0.10400
S1857       S  0.92362995  0.87222282  0.09481651    -0.33000
S1858       S  0.83748408  0.85773564  0.39410683    -0.33000
H1859       H  0.85414090  0.84109792  0.36880357     0.28400
H1860       H  0.91966461  0.90062000  0.11678155     0.28400
H1861       H  0.87306524  0.89550297  0.07152181     0.19000
H1862       H  0.85690444  0.80761969  0.43349624     0.19000
C1863       C  0.90663764  0.80823863  0.50768140    -0.03200
C1864       C  0.56996760  0.89010460  0.99234524    -0.03200
C1865       C  0.65409824  0.56356282  0.99919932    -0.03200
C1866       C  0.56539232  0.63830732  0.49706987    -0.03200
C1867       C  0.90070246  0.55342990  0.00516829    -0.03200
C1868       C  0.81900765  0.88670740  0.00603740    -0.03200
O1869       O  0.63537129  0.73981688  0.71230887    -0.86100
O1870       O  0.69861921  0.80371048  0.68748446    -0.83100
C1871       C  0.71939737  0.83818315  0.67810335     0.97400
O1872       O  0.72030215  0.86329180  0.70619073    -0.83200
O1873       O  0.65694292  0.86090431  0.68107719    -0.85800
C1874       C  0.62319979  0.84828923  0.67530852     1.01900
O1875       O  0.60102378  0.82586681  0.70706821    -0.78600
O1876       O  0.60076970  0.76095543  0.68454559    -0.78800
C1877       C  0.61252928  0.73889262  0.67996320     1.01800
O1878       O  0.65253626  0.76184147  0.81739463    -0.86100
O1879       O  0.71912419  0.82237842  0.79338286    -0.83200
C1880       C  0.72298653  0.84872631  0.82190960     0.97400
O1881       O  0.70555910  0.86491626  0.81225964    -0.83200
O1882       O  0.64602363  0.86971175  0.78654560    -0.85800
C1883       C  0.62175257  0.84797756  0.81684793     1.01900
O1884       O  0.60623519  0.81258878  0.81225100    -0.78600
O1885       O  0.59700694  0.74325201  0.79017299    -0.78800
C1886       C  0.61841658  0.74083391  0.82175467     1.01800
Cr1887     Cr  0.67483719  0.78412509  0.75246025     1.93700
Cr1888     Cr  0.68022729  0.86091613  0.74671298     1.93200
Cr1889     Cr  0.60501822  0.78745433  0.74861714     1.39100
O1890       O  0.65346802  0.81092447  0.74940154    -1.23800
O1891       O  0.77589854  0.64158920  0.81911794    -0.86100
O1892       O  0.83866464  0.70790785  0.79653332    -0.83100
C1893       C  0.86167776  0.70790451  0.82775496     0.97400
O1894       O  0.87269552  0.68537623  0.82183153    -0.83200
O1895       O  0.87224653  0.62156241  0.79276536    -0.85800
C1896       C  0.85024314  0.59676713  0.82255887     1.01900
O1897       O  0.81641442  0.58401244  0.81704906    -0.78600
O1898       O  0.75317892  0.58339542  0.79328689    -0.78800
C1899       C  0.75406964  0.60673676  0.82514261     1.01800
O1900       O  0.75497876  0.62667231  0.71232269    -0.86100
O1901       O  0.82093880  0.68888821  0.69076673    -0.83200
C1902       C  0.85499340  0.71027887  0.68645382     0.97400
O1903       O  0.87665032  0.70744222  0.71724216    -0.83200
O1904       O  0.86930937  0.64002191  0.68930719    -0.85800
C1905       C  0.85508379  0.60501468  0.68242424     1.01900
O1906       O  0.83046646  0.58154874  0.71121742    -0.78600
O1907       O  0.77132339  0.58795715  0.68666907    -0.78800
C1908       C  0.75324334  0.60366658  0.67927976     1.01800
Cr1909     Cr  0.79911404  0.66416968  0.75470016     1.93700
Cr1910     Cr  0.86920166  0.66189046  0.75529666     1.93200
Cr1911     Cr  0.79461688  0.58791244  0.75219467     1.39100
O1912       O  0.82097624  0.63794184  0.75408336    -1.23800
C1913       C  0.74393391  0.84895873  0.63497318    -0.06900
C1914       C  0.76421468  0.83175450  0.62976449    -0.18000
C1915       C  0.78829060  0.84022967  0.59022631     0.10300
C1916       C  0.79274227  0.86787729  0.55299878    -0.06800
C1917       C  0.77006292  0.88327295  0.55825072    -0.18000
C1918       C  0.74657043  0.87473665  0.59843863     0.10400
S1919       S  0.81049231  0.81340047  0.59531178    -0.33000
S1920       S  0.71971195  0.89666335  0.60197170    -0.33000
H1921       H  0.73097185  0.91702846  0.55679955     0.28400
H1922       H  0.80912170  0.80497776  0.54437443     0.28400
H1923       H  0.76143493  0.81137065  0.65783579     0.19000
H1924       H  0.77208125  0.90393390  0.53147470     0.19000
C1925       C  0.79166674  0.87628731  0.95879665    -0.06900
C1926       C  0.78970235  0.90466283  0.93113882    -0.18000
C1927       C  0.76949152  0.89701059  0.88548083     0.10300
C1928       C  0.74719454  0.85947143  0.86794662    -0.06800
C1929       C  0.74540397  0.83056432  0.89743542    -0.18000
C1930       C  0.76648390  0.83812709  0.94247937     0.10400
S1931       S  0.77483501  0.93684340  0.85041978    -0.33000
S1932       S  0.76080946  0.79782946  0.97646782    -0.33000
H1933       H  0.74314751  0.76930791  0.43691693     0.28400
H1934       H  0.77320090  0.92131592  0.80253083     0.28400
H1935       H  0.80395415  0.93356856  0.94430229     0.19000
H1936       H  0.72672386  0.80154953  0.88542964     0.19000
C1937       C  0.88725496  0.56101592  0.95355793    -0.06900
C1938       C  0.91262342  0.58928221  0.92126305    -0.18000
C1939       C  0.90176096  0.60101257  0.87835147     0.10300
C1940       C  0.86419898  0.58262995  0.86391457    -0.06800
C1941       C  0.83893490  0.55148239  0.89202072    -0.18000
C1942       C  0.84953550  0.54074416  0.93675482     0.10400
S1943       S  0.93715201  0.64083494  0.84468114    -0.33000
S1944       S  0.81395103  0.50754245  0.47514776    -0.33000
H1945       H  0.78423258  0.49726853  0.44113996     0.28400
H1946       H  0.96358562  0.65594734  0.88462168     0.28400
H1947       H  0.94159951  0.60381725  0.92953555     0.19000
H1948       H  0.81021680  0.53695300  0.88070181     0.19000
C1949       C  0.86666720  0.59181499  0.63907083    -0.06900
C1950       C  0.85568147  0.59667166  0.59114877    -0.18000
C1951       C  0.86698089  0.58777354  0.54690256     0.10300
C1952       C  0.88866548  0.57020309  0.55006268    -0.06800
C1953       C  0.90242547  0.56939670  0.59937465    -0.18000
C1954       C  0.89120713  0.57893376  0.64328084     0.10400
S1955       S  0.85999846  0.60838466  0.99160593    -0.33000
S1956       S  0.90942171  0.57380890  0.70314242    -0.33000
H1957       H  0.90426715  0.59905550  0.73133075     0.28400
H1958       H  0.82565500  0.60245447  0.00405587     0.28400
H1959       H  0.83970956  0.61005694  0.58844834     0.19000
H1960       H  0.92124675  0.55946855  0.60392426     0.19000
C1961       C  0.88424280  0.50900694  0.00786447    -0.06900
C1962       C  0.86516459  0.98952201  0.55115312    -0.18000
C1963       C  0.85056520  0.95066572  0.55620664     0.10300
C1964       C  0.84595732  0.93092726  0.01177046    -0.06800
C1965       C  0.86714198  0.95077754  0.97017975    -0.18000
C1966       C  0.88553398  0.99039516  0.96666531     0.10400
S1967       S  0.84354013  0.93291499  0.62023490    -0.33000
S1968       S  0.90066208  0.50480092  0.90409506    -0.33000
H1969       H  0.87689422  0.47168797  0.87595027     0.28400
H1970       H  0.86152946  0.96793024  0.64607527     0.28400
H1971       H  0.86416285  0.50374396  0.58399684     0.19000
H1972       H  0.86699084  0.93460216  0.93828373     0.19000
C1973       C  0.58005227  0.66711309  0.54441858    -0.06900
C1974       C  0.59409624  0.65934471  0.58888377    -0.18000
C1975       C  0.60220177  0.68000103  0.63408400     0.10300
C1976       C  0.60042876  0.71286414  0.63543804    -0.06800
C1977       C  0.59029270  0.72374139  0.59103649    -0.18000
C1978       C  0.58083627  0.70258583  0.54592265     0.10400
S1979       S  0.61334656  0.66164938  0.68909329    -0.33000
S1980       S  0.57276309  0.72519218  0.49201562    -0.33000
H1981       H  0.55975158  0.74495146  0.02225212     0.28400
H1982       H  0.59225567  0.66874373  0.72186276     0.28400
H1983       H  0.59915708  0.63690999  0.59019553     0.19000
H1984       H  0.59122807  0.75030894  0.59118290     0.19000
C1985       C  0.60397985  0.71330519  0.86397021    -0.06900
C1986       C  0.62887337  0.71701129  0.90248799    -0.18000
C1987       C  0.61805031  0.69324253  0.94417573     0.10300
C1988       C  0.58014912  0.66505419  0.94982928    -0.06800
C1989       C  0.55550350  0.66028080  0.90954293    -0.18000
C1990       C  0.56691241  0.68361870  0.86693258     0.10400
S1991       S  0.65221267  0.69889048  0.49084712    -0.33000
S1992       S  0.53346588  0.67415628  0.81675051    -0.33000
H1993       H  0.50668082  0.63773737  0.83202555     0.28400
H1994       H  0.67837748  0.73613080  0.47801201     0.28400
H1995       H  0.65735262  0.73921056  0.90035744     0.19000
H1996       H  0.52698646  0.63836699  0.91098065     0.19000
C1997       C  0.94427095  0.57523046  0.00837560    -0.06900
C1998       C  0.96339432  0.55857268  0.98963270    -0.18000
C1999       C  0.50010434  0.57742938  0.98346724     0.10300
C2000       C  0.52179004  0.61428266  0.49741738    -0.06800
C2001       C  0.50286303  0.63264186  0.50874044    -0.18000
C2002       C  0.96728181  0.61666917  0.51621284     0.10400
S2003       S  0.51496972  0.55316582  0.94309075    -0.33000
S2004       S  0.94952502  0.64760364  0.52261153    -0.33000
H2005       H  0.98267737  0.68257702  0.52711366     0.28400
H2006       H  0.48416037  0.51646945  0.94632400     0.28400
H2007       H  0.94942282  0.52907822  0.98095699     0.19000
H2008       H  0.51726025  0.66208372  0.51545316     0.19000
C2009       C  0.68066646  0.57862197  0.54552002    -0.06900
C2010       C  0.70503985  0.56508537  0.54988802    -0.18000
C2011       C  0.72904788  0.57285412  0.59153389     0.10300
C2012       C  0.72953523  0.59503211  0.63230951    -0.06800
C2013       C  0.70761052  0.61082303  0.62752344    -0.21400
C2014       C  0.68422301  0.60422938  0.58524114     0.10400
S2015       S  0.75763695  0.55265454  0.59123142    -0.33000
S2016       S  0.66168249  0.63061422  0.59019581    -0.33000
H2017       H  0.66007003  0.63884707  0.53962539     0.28400
H2018       H  0.75439947  0.54472863  0.53901279     0.28400
H2019       H  0.70376703  0.54595963  0.52116062     0.19000
H2020       H  0.70878374  0.62909139  0.65763472     0.19000
C2021       C  0.72904884  0.59426063  0.86922162    -0.06900
C2022       C  0.72843976  0.62212628  0.89835723    -0.18000
C2023       C  0.70616078  0.61350412  0.94032389     0.10300
C2024       C  0.68093563  0.57507506  0.95322969    -0.06800
C2025       C  0.68415676  0.54752292  0.92585769    -0.18000
C2026       C  0.70717001  0.55637981  0.88453178     0.10400
S2027       S  0.71061463  0.65294432  0.97522749    -0.33000
S2028       S  0.70954874  0.51873857  0.85440698    -0.33000
H2029       H  0.67791611  0.48849117  0.87517437     0.28400
H2030       H  0.73129920  0.68046827  0.44196666     0.28400
H2031       H  0.74572541  0.65140372  0.88811517     0.19000
H2032       H  0.67020553  0.51866608  0.93800355     0.19000
C2033       C  0.58327762  0.61284681  0.99608512    -0.06900
C2034       C  0.60132298  0.61220391  0.95206685    -0.18000
C2035       C  0.62099873  0.59399248  0.94912896     0.10300
C2036       C  0.62620811  0.57730808  0.99309142    -0.06800
C2037       C  0.59966020  0.56759930  0.53074516    -0.18000
C2038       C  0.57770853  0.58387087  0.53261229     0.10400
S2039       S  0.63114251  0.58641735  0.88580623    -0.33000
S2040       S  0.54468048  0.56574817  0.58245992    -0.33000
H2041       H  0.53384231  0.59214540  0.58156134     0.28400
H2042       H  0.63551918  0.61969344  0.86487981     0.28400
H2043       H  0.59805678  0.62369123  0.91714928     0.19000
H2044       H  0.59814849  0.54959180  0.56140714     0.19000
C2045       C  0.58116438  0.88178106  0.94029752    -0.06900
C2046       C  0.61921237  0.90216903  0.93048150    -0.18000
C2047       C  0.63343769  0.89328888  0.88921458     0.10300
C2048       C  0.60933318  0.86346318  0.85625017    -0.06800
C2049       C  0.57170952  0.84650796  0.86150644    -0.18000
C2050       C  0.55705341  0.85670810  0.90047255     0.10400
S2051       S  0.68240399  0.91690150  0.88293706    -0.33000
S2052       S  0.50861510  0.83978264  0.89208765    -0.33000
H2053       H  0.50367236  0.82776048  0.84127076     0.28400
H2054       H  0.69252299  0.94106766  0.92534734     0.28400
H2055       H  0.63821566  0.92306080  0.95784485     0.19000
H2056       H  0.55351450  0.82526440  0.83383422     0.19000
C2057       C  0.58367905  0.87602966  0.53877510    -0.06900
C2058       C  0.57178524  0.87886628  0.58737983    -0.18000
C2059       C  0.58455228  0.87098964  0.63226537     0.10300
C2060       C  0.60953118  0.85880917  0.63015868    -0.06800
C2061       C  0.61961178  0.85298792  0.58310184    -0.18000
C2062       C  0.60586181  0.85916781  0.53768389     0.10400
S2063       S  0.56899195  0.87857846  0.69108748    -0.33000
S2064       S  0.61136133  0.83621177  0.48361264    -0.33000
H2065       H  0.62768356  0.81765697  0.00708045     0.28400
H2066       H  0.60182601  0.89050748  0.71894499     0.28400
H2067       H  0.55366458  0.88959661  0.59066889     0.19000
H2068       H  0.63624546  0.84035260  0.58207476     0.19000
C2069       C  0.58884936  0.93504957  0.99542679    -0.06900
C2070       C  0.61055766  0.95615195  0.53798941    -0.18000
C2071       C  0.62472998  0.99484480  0.54448019     0.10300
C2072       C  0.62857718  0.51920374  0.00273304    -0.06800
C2073       C  0.60582864  0.99704942  0.95947714    -0.18000
C2074       C  0.58620746  0.95722752  0.95557197     0.10400
S2075       S  0.63416221  0.51321573  0.60972103    -0.33000
S2076       S  0.55877210  0.93634870  0.89817235    -0.33000
H2077       H  0.56416636  0.96950087  0.87555854     0.28400
H2078       H  0.62106466  0.47867561  0.63458550     0.28400
H2079       H  0.61672234  0.94323120  0.56858979     0.19000
H2080       H  0.60552375  0.51498013  0.92822740     0.19000
C2081       C  0.87521736  0.73388243  0.87198817    -0.06900
C2082       C  0.87092698  0.71835664  0.91983667    -0.18000
C2083       C  0.88192033  0.74074769  0.96395644     0.10300
C2084       C  0.89457162  0.78048689  0.96081730    -0.06800
C2085       C  0.90296287  0.79589669  0.91166899    -0.18000
C2086       C  0.89300394  0.77333505  0.86787671     0.10400
S2087       S  0.88536980  0.71707544  0.01962337    -0.33000
S2088       S  0.90503579  0.79666201  0.80791406    -0.33000
H2089       H  0.91206501  0.77051235  0.78576101     0.28400
H2090       H  0.85861014  0.68157359  0.50579534     0.28400
H2091       H  0.86007620  0.68829033  0.92252366     0.19000
H2092       H  0.91663622  0.82617629  0.90720753     0.19000
C2093       C  0.86896452  0.73853235  0.64503492    -0.06900
C2094       C  0.84368985  0.73585877  0.60758693    -0.18000
C2095       C  0.85465482  0.75822998  0.56427393     0.10300
C2096       C  0.89256578  0.78548709  0.55775947    -0.06800
C2097       C  0.91704858  0.79069818  0.59862011    -0.18000
C2098       C  0.90625289  0.76701063  0.64063072     0.10400
S2099       S  0.81990207  0.74677800  0.51507360    -0.33000
S2100       S  0.94113319  0.77393065  0.68728362    -0.33000
H2101       H  0.97189456  0.80173478  0.66194042     0.28400
H2102       H  0.78911006  0.72632098  0.54503366     0.28400
H2103       H  0.81507082  0.71426660  0.61053887     0.19000
H2104       H  0.94524709  0.81334426  0.59812405     0.19000
C2105       C  0.94787228  0.83400506  0.00519061    -0.06900
C2106       C  0.96863362  0.81427942  0.51162750    -0.18000
C2107       C  0.50448956  0.83006123  0.50475510     0.10300
C2108       C  0.52720478  0.86935016  0.99750434    -0.06800
C2109       C  0.50878691  0.88943010  0.99577999    -0.18000
C2110       C  0.96991522  0.87302546  0.99242724     0.10400
S2111       S  0.52136563  0.79817186  0.50459737    -0.33000
S2112       S  0.95225632  0.90079544  0.96530790    -0.33000
H2113       H  0.98442347  0.92846473  0.94234971     0.28400
H2114       H  0.48818919  0.76521933  0.48998474     0.28400
H2115       H  0.95333985  0.78454428  0.51911233     0.19000
H2116       H  0.52391142  0.91963878  0.99337175     0.19000
C2117       C  0.84526436  0.87112467  0.00039806    -0.06900
C2118       C  0.87138697  0.87592308  0.54101414    -0.18000
C2119       C  0.89190154  0.85811941  0.54345350     0.10300
C2120       C  0.88613635  0.83337269  0.00348346    -0.06800
C2121       C  0.86325814  0.83022044  0.96168812    -0.18000
C2122       C  0.84776834  0.85262827  0.95686146     0.10400
S2123       S  0.92382229  0.87008001  0.59664346    -0.33000
S2124       S  0.83905275  0.86221948  0.89274549    -0.33000
H2125       H  0.85837221  0.84832185  0.86796140     0.28400
H2126       H  0.91931336  0.89802131  0.61892114     0.28400
H2127       H  0.87363782  0.89372419  0.57224741     0.19000
H2128       H  0.85719142  0.81079467  0.93105650     0.19000
loop_ 
_geom_bond_atom_site_label_1 
_geom_bond_atom_site_label_2 
_geom_bond_distance 
_geom_bond_site_symmetry_2 
_ccdc_geom_bond_type 
C1          C234   1.567       .  S
C1          C488   1.584   1_554  S
C1          C509   1.577       .  S
C1          C524   1.581       .  S
C2          C183   1.568       .  S
C2          C207   1.594       .  S
C2          C246   1.572       .  S
C2          C461   1.589       .  S
C3          C162   1.595       .  S
C3          C174   1.577       .  S
C3          C210   1.585       .  S
C3          C413   1.583       .  S
C4          C111   1.601   1_556  S
C4          C138   1.590       .  S
C4          C392   1.561       .  S
C4          C437   1.606       .  S
C5           C75   1.564       .  S
C5           C99   1.594       .  S
C5          C135   1.590       .  S
C5          C356   1.593       .  S
C6           C63   1.580       .  S
C6          C102   1.580       .  S
C6          C255   1.569       .  S
C6          C320   1.573       .  S
O7          Cr25   1.994       .  S
O7           C15   1.262       .  A
O8          Cr25   1.975       .  S
O8            C9   1.259       .  A
C9           O10   1.268       .  A
C9           C51   1.485       .  S
O10         Cr26   2.017       .  S
O11         Cr26   1.971       .  S
O11          C12   1.258       .  A
C12          O13   1.265       .  A
C12         C198   1.477       .  S
O13         Cr27   2.017       .  S
O14         Cr27   1.978       .  S
O14          C15   1.262       .  A
C15         C114   1.482       .  S
O16         Cr25   1.973       .  S
O16          C24   1.262       .  A
O17         Cr25   2.001       .  S
O17          C18   1.264       .  A
C18          O19   1.258       .  A
C18          C66   1.477       .  S
O19         Cr26   1.974       .  S
O20         Cr26   2.012       .  S
O20          C21   1.266       .  A
C21          O22   1.262       .  A
C21         C186   1.476       .  S
O22         Cr27   1.969       .  S
O23         Cr27   2.023       .  S
O23          C24   1.267       .  A
C24         C123   1.500       .  S
Cr25         O28   1.772       .  S
Cr26         O28   1.774       .  S
Cr27         O28   1.772       .  S
O29         Cr47   1.983       .  S
O29          C37   1.262       .  A
O30         Cr47   2.017       .  S
O30          C31   1.266       .  A
C31          O32   1.259       .  A
C31         C219   1.473       .  S
O32         Cr48   1.972       .  S
O33         Cr48   2.006       .  S
O33          C34   1.265       .  A
C34          O35   1.260       .  A
C34          C78   1.488       .  S
O35         Cr49   1.969       .  S
O36         Cr49   2.029       .  S
O36          C37   1.269       .  A
C37         C159   1.510       .  S
O38         Cr47   2.020       .  S
O38          C46   1.271       .  A
O39         Cr47   1.969       .  S
O39          C40   1.260       .  A
C40          O41   1.267       .  A
C40         C231   1.495       .  S
O41         Cr48   2.018       .  S
O42         Cr48   1.976       .  S
O42          C43   1.261       .  A
C43          O44   1.268       .  A
C43          C87   1.479       .  S
O44         Cr49   2.028       .  S
O45         Cr49   1.968       .  S
O45          C46   1.257       .  A
C46         C150   1.500       .  S
Cr47         O50   1.770       .  S
Cr48         O50   1.765       .  S
Cr49         O50   1.771       .  S
C51          C52   1.396       .  A
C51          C56   1.405       .  A
C52          C53   1.407       .  A
C52          H61   1.083       .  S
C53          C54   1.441       .  A
C53          S57   1.805       .  S
C54         C272   1.579       .  S
C54          C55   1.423       .  A
C55          C56   1.403       .  A
C55          H62   1.081       .  S
C56          S58   1.806       .  S
S57          H60   1.407       .  S
S58          H59   1.407       .  S
C63          C64   1.422       .  A
C63          C68   1.433       .  A
C64          C65   1.395       .  A
C64          H73   1.077       .  S
C65          C66   1.405       .  A
C65          S69   1.804       .  S
C66          C67   1.399       .  A
C67          C68   1.405       .  A
C67          H74   1.083       .  S
C68          S70   1.804       .  S
S69          H72   1.407       .  S
S70         H337   1.407       .  S
H71         S336   1.407       .  S
C75          C76   1.419       .  A
C75          C80   1.433       .  A
C76          C77   1.394       .  A
C76          H85   1.073       .  S
C77          C78   1.412       .  A
C77          S81   1.812       .  S
C78          C79   1.406       .  A
C79          C80   1.406       .  A
C79          H86   1.082       .  S
C80         S348   1.813       .  S
S81          H84   1.408       .  S
S82         C346   1.815       .  S
S82          H83   1.406       .  S
C87          C88   1.389       .  A
C87          C92   1.410       .  A
C88          C89   1.402       .  A
C88          H97   1.085       .  S
C89          C90   1.452       .  A
C89         S359   1.813   1_554  S
C90         C271   1.600       .  S
C90          C91   1.422       .  A
C91          C92   1.406       .  A
C91          H98   1.084       .  S
C92          S94   1.807       .  S
S93         C355   1.812       .  S
S93          H96   1.408       .  S
S94          H95   1.398       .  S
C99         C898   1.417   1_545  A
C99         C636   1.440   1_545  A
C100        C101   1.398       .  A
C100        C897   1.419       .  A
C100        H641   1.065       .  S
C101        C368   1.420       .  A
C101        S105   1.816       .  S
C102        C103   1.409       .  A
C102        C367   1.423       .  A
C103        C104   1.407       .  A
C103        H110   1.078       .  S
C104        C631   1.439       .  A
C104        S638   1.815       .  S
S105        H108   1.408       .  S
S106        C636   1.815   1_545  S
S106        H107   1.407   1_545  S
H109        C632   1.061   1_545  S
C111        C112   1.414       .  A
C111        C116   1.456       .  A
C112        C113   1.395       .  A
C112        H121   1.063       .  S
C113        C114   1.407       .  A
C113        S117   1.804       .  S
C114        C115   1.393       .  A
C115        C116   1.402       .  A
C115        H122   1.083       .  S
C116        S118   1.825   1_554  S
S117        H120   1.406       .  S
S118        H385   1.407   1_556  S
H119        S384   1.406       .  S
C123        C124   1.403       .  A
C123        C128   1.419       .  A
C124        C125   1.400       .  A
C124        H133   1.082       .  S
C125        C126   1.433       .  A
C125        S395   1.812       .  S
C126        C270   1.570       .  S
C126        C127   1.417       .  A
C127        C128   1.407       .  A
C127        H134   1.081       .  S
C128        S130   1.800       .  S
S129        C391   1.812       .  S
S129        H132   1.406       .  S
S130        H131   1.405       .  S
C135        C136   1.417       .  A
C135        C406   1.429       .  A
C136       C1201   1.404       .  A
C136        H145   1.071       .  S
C137       C1200   1.408   1_455  A
C137        C404   1.430       .  A
C137        S141   1.803       .  S
C138        C139   1.410   1_556  A
C138        C403   1.429       .  A
C139       C1204   1.397   1_455  A
C139        H146   1.063       .  S
C140        C401   1.429       .  A
C140       C1203   1.396       .  A
C140        S142   1.812       .  S
S141        H144   1.406       .  S
S142        H143   1.407       .  S
C147        C269   1.580   1_554  S
C147        C148   1.421       .  A
C147        C152   1.439       .  A
C148        C149   1.400       .  A
C148        H157   1.078       .  S
C149        C150   1.415       .  A
C149        S153   1.814       .  S
C150        C151   1.403       .  A
C151        C152   1.410       .  A
C151        H158   1.082       .  S
C152        S154   1.806       .  S
S153        H156   1.406       .  S
S154        H155   1.407       .  S
C159        C160   1.404       .  A
C159        C164   1.415       .  A
C160        C161   1.407       .  A
C160        H169   1.082       .  S
C161        C162   1.433       .  A
C161        S165   1.798       .  S
C162        C163   1.424       .  A
C163        C164   1.412       .  A
C163        H170   1.076       .  S
C164        S166   1.808       .  S
S165        H434   1.407       .  S
S166        H167   1.407   1_545  S
H168        S431   1.406       .  S
C171        C270   1.609       .  S
C171        C172   1.425       .  A
C171        C442   1.441       .  A
C172        C173   1.402       .  A
C172        H181   1.077       .  S
C173        C174   1.423       .  A
C173        S177   1.812       .  S
C174        C441   1.417       .  A
C175        C176   1.417       .  A
C175        C440   1.416   1_554  A
C175        H182   1.080       .  S
C176        C437   1.441   1_554  A
C176        S178   1.818       .  S
S177        H180   1.408       .  S
S178        H179   1.395       .  S
C183        C184   1.423       .  A
C183        C188   1.440       .  A
C184        C185   1.406       .  A
C184        H193   1.082       .  S
C185        C186   1.407       .  A
C185        S189   1.806       .  S
C186        C187   1.394       .  A
C187        C188   1.399       .  A
C187        H194   1.084       .  S
C188        S190   1.813       .  S
S189        H192   1.407       .  S
S190        H191   1.407   1_455  S
C195        C268   1.593   1_554  S
C195        C196   1.427       .  A
C195        C200   1.445       .  A
C196        C197   1.401       .  A
C196        H205   1.084       .  S
C197        C198   1.404       .  A
C197        S201   1.804       .  S
C198        C199   1.392       .  A
C199        C200   1.403       .  A
C199        H206   1.084       .  S
C200        S202   1.808   1_554  S
S201        H204   1.407       .  S
S202        H469   1.409   1_556  S
H203        S468   1.408       .  S
C207        C212   1.436       .  A
C207        C474   1.416       .  A
C208        C209   1.397       .  A
C208        C473   1.417   1_554  A
C208        H217   1.069       .  S
C209       C1008   1.424   1_554  A
C209        S745   1.816       .  S
C210       C1007   1.423   1_545  A
C210        C743   1.413   1_545  A
C211        C212   1.408       .  A
C211        C742   1.410       .  A
C211        H750   1.079       .  S
C212        S214   1.807       .  S
S213        C741   1.816   1_545  S
S213        H216   1.408   1_545  S
S214        H215   1.407       .  S
H218        C743   1.078   1_545  S
C219        C220   1.392       .  A
C219        C224   1.405       .  A
C220        C221   1.400       .  A
C220        H229   1.085       .  S
C221        C222   1.444       .  A
C221        S225   1.812       .  S
C222        C267   1.582       .  S
C222        C223   1.419       .  A
C223        C224   1.399       .  A
C223        H230   1.083       .  S
C224        S226   1.800       .  S
S225        H494   1.407       .  S
S226        H227   1.403       .  S
H228        S491   1.407       .  S
C231        C232   1.406       .  A
C231        C236   1.414       .  A
C232        C233   1.404       .  A
C232        H241   1.082       .  S
C233        C234   1.430       .  A
C233        S237   1.814       .  S
C234        C235   1.418       .  A
C235        C236   1.401       .  A
C235        H242   1.076       .  S
C236        S238   1.810       .  S
S237        H240   1.406       .  S
S238        H239   1.407       .  S
C243        C267   1.577       .  S
C243        C248   1.431       .  A
C243        C510   1.412       .  A
C244        C509   1.412       .  A
C244       C1309   1.395       .  A
C244        H253   1.073       .  S
C245       C1308   1.398   1_455  A
C245        C512   1.429   1_554  A
C245        S249   1.811       .  S
C246        C247   1.415       .  A
C246        C511   1.427       .  A
C247       C1312   1.404   1_455  A
C247        H254   1.071       .  S
C248       C1311   1.406       .  A
C248        S250   1.814       .  S
S249        H252   1.407   1_454  S
S250        H251   1.407       .  S
C255        C260   1.424       .  A
C255        C522   1.411       .  A
C256        C257   1.411       .  A
C256        C521   1.412   1_554  A
C256        H265   1.078       .  S
C257        C524   1.433       .  A
C257        S261   1.809       .  S
C258        C267   1.579       .  S
C258        C259   1.415       .  A
C258        C523   1.433       .  A
C259        C260   1.397       .  A
C259        H266   1.071       .  S
C260        S262   1.814       .  S
S261        H264   1.406       .  S
S262        H263   1.408       .  S
C267        C500   1.566       .  S
C268        C449   1.572       .  S
C268        C473   1.599       .  S
C268        C512   1.574       .  S
C269        C428   1.588       .  S
C269        C440   1.576       .  S
C269        C476   1.585   1_556  S
C270        C377   1.605       .  S
C270        C404   1.594       .  S
C271        C341   1.558   1_554  S
C271        C365   1.600       .  S
C271        C401   1.589       .  S
C272        C329   1.580   1_554  S
C272        C368   1.580       .  S
C272        C521   1.572   1_554  S
O273       Cr291   1.999       .  S
O273        C281   1.262       .  A
O274       Cr291   1.962       .  S
O274        C275   1.257       .  A
C275        O276   1.267       .  A
C275        C317   1.475       .  S
O276       Cr292   2.014       .  S
O277       Cr292   1.971       .  S
O277        C278   1.258       .  A
C278        O279   1.263       .  A
C278        C464   1.472       .  S
O279       Cr293   2.010       .  S
O280       Cr293   1.986       .  S
O280        C281   1.264       .  A
C281        C380   1.489       .  S
O282       Cr291   1.963       .  S
O282        C290   1.259       .  A
O283       Cr291   2.003       .  S
O283        C284   1.265       .  A
C284        O285   1.258       .  A
C284        C332   1.478       .  S
O285       Cr292   1.974       .  S
O286       Cr292   2.010       .  S
O286        C287   1.266       .  A
C287        O288   1.264       .  A
C287        C452   1.480       .  S
O288       Cr293   1.975       .  S
O289       Cr293   2.015       .  S
O289        C290   1.266       .  A
C290        C389   1.489       .  S
Cr291       O294   1.771       .  S
Cr292       O294   1.772       .  S
Cr293       O294   1.769       .  S
O295       Cr313   1.974       .  S
O295        C303   1.260       .  A
O296       Cr313   2.018       .  S
O296        C297   1.266       .  A
C297        O298   1.260       .  A
C297        C485   1.473       .  S
O298       Cr314   1.972       .  S
O299       Cr314   2.007       .  S
O299        C300   1.264       .  A
C300        O301   1.260       .  A
C300        C344   1.491       .  S
O301       Cr315   1.973       .  S
O302       Cr315   2.033       .  S
O302        C303   1.272       .  A
C303        C425   1.503       .  S
O304       Cr313   2.016       .  S
O304        C312   1.269       .  A
O305       Cr313   1.969       .  S
O305        C306   1.259       .  A
C306        O307   1.266       .  A
C306        C497   1.492       .  S
O307       Cr314   2.012       .  S
O308       Cr314   1.966       .  S
O308        C309   1.259       .  A
C309        O310   1.269       .  A
C309        C353   1.473       .  S
O310       Cr315   2.029       .  S
O311       Cr315   1.974       .  S
O311        C312   1.257       .  A
C312        C416   1.501       .  S
Cr313       O316   1.768       .  S
Cr314       O316   1.762       .  S
Cr315       O316   1.770       .  S
C317        C318   1.395       .  A
C317        C322   1.402       .  A
C318        C319   1.403       .  A
C318        H327   1.084       .  S
C319        C320   1.441       .  A
C319        S323   1.806       .  S
C320        C321   1.423       .  A
C321        C322   1.399       .  A
C321        H328   1.081       .  S
C322        S324   1.805       .  S
S323        H326   1.407       .  S
S324        H325   1.407       .  S
C329        C330   1.422       .  A
C329        C334   1.431       .  A
C330        C331   1.396       .  A
C330        H339   1.077       .  S
C331        C332   1.405       .  A
C331        S335   1.804       .  S
C332        C333   1.399       .  A
C333        C334   1.405       .  A
C333        H340   1.083       .  S
C334        S336   1.802       .  S
S335        H338   1.407       .  S
C341        C342   1.418       .  A
C341        C346   1.433       .  A
C342        C343   1.397       .  A
C342        H351   1.075       .  S
C343        C344   1.414       .  A
C343        S347   1.810       .  S
C344        C345   1.406       .  A
C345        C346   1.405       .  A
C345        H352   1.081       .  S
S347        H350   1.407       .  S
S348        H349   1.407       .  S
C353        C354   1.388       .  A
C353        C358   1.405       .  A
C354        C355   1.400       .  A
C354        H363   1.085       .  S
C355        C356   1.450       .  A
C356        C357   1.424       .  A
C357        C358   1.404       .  A
C357        H364   1.084       .  S
C358        S360   1.802       .  S
S359        H362   1.408   1_556  S
S360        H361   1.405       .  S
C365        C632   1.417   1_545  A
C365        C902   1.446   1_544  A
C366        C631   1.418       .  A
C366        C367   1.401       .  A
C366        H907   1.068       .  S
C367        S371   1.816       .  S
C368        C369   1.411   1_554  A
C369        C370   1.409       .  A
C369        H376   1.079       .  S
C370        C897   1.440   1_556  A
C370        S904   1.815       .  S
S371        H374   1.407       .  S
S372        C902   1.821   1_545  S
S372        H373   1.406   1_545  S
H375        C898   1.065   1_545  S
C377        C378   1.415       .  A
C377        C382   1.454       .  A
C378        C379   1.403       .  A
C378        H387   1.059       .  S
C379        C380   1.409       .  A
C379        S383   1.811       .  S
C380        C381   1.393       .  A
C381        C382   1.401       .  A
C381        H388   1.084       .  S
C382        S384   1.819       .  S
S383        H386   1.407       .  S
C389        C390   1.401       .  A
C389        C394   1.415       .  A
C390        C391   1.397       .  A
C390        H399   1.083       .  S
C391        C392   1.433       .  A
C392        C393   1.416       .  A
C393        C394   1.402       .  A
C393        H400   1.081       .  S
C394        S396   1.802       .  S
S395        H398   1.405       .  S
S396        H397   1.408       .  S
C401        C402   1.419   1_554  A
C402       C1467   1.410       .  A
C402        H411   1.067       .  S
C403       C1466   1.405   1_456  A
C403        S407   1.803       .  S
C404        C405   1.412       .  A
C405       C1470   1.400   1_455  A
C405        H412   1.056       .  S
C406       C1469   1.400       .  A
C406        S408   1.815       .  S
S407        H410   1.406       .  S
S408        H409   1.406       .  S
C413        C414   1.423       .  A
C413        C418   1.445       .  A
C414        C415   1.403       .  A
C414        H423   1.080       .  S
C415        C416   1.414       .  A
C415        S419   1.811       .  S
C416        C417   1.401       .  A
C417        C418   1.406       .  A
C417        H424   1.084       .  S
C418        S420   1.807       .  S
S419        H422   1.407       .  S
S420        H421   1.387       .  S
C425        C426   1.404       .  A
C425        C430   1.411       .  A
C426        C427   1.407       .  A
C426        H435   1.082       .  S
C427        C428   1.434       .  A
C427        S431   1.804       .  S
C428        C429   1.423       .  A
C429        C430   1.404       .  A
C429        H436   1.079       .  S
C430        S432   1.799       .  S
S432        H433   1.407       .  S
C437        C438   1.426       .  A
C438        C439   1.399       .  A
C438        H447   1.076       .  S
C439        C440   1.422       .  A
C439        S443   1.816       .  S
C441        C442   1.418       .  A
C441        H448   1.081       .  S
C442        S444   1.817       .  S
S443        H446   1.407       .  S
S444        H445   1.395       .  S
C449        C450   1.422       .  A
C449        C454   1.442       .  A
C450        C451   1.407       .  A
C450        H459   1.082       .  S
C451        C452   1.409       .  A
C451        S455   1.805       .  S
C452        C453   1.393       .  A
C453        C454   1.400       .  A
C453        H460   1.083       .  S
C454        S456   1.817       .  S
S455        H458   1.407       .  S
S456        H457   1.406       .  S
C461        C462   1.426       .  A
C461        C466   1.445       .  A
C462        C463   1.399       .  A
C462        H471   1.084       .  S
C463        C464   1.403       .  A
C463        S467   1.804       .  S
C464        C465   1.392       .  A
C465        C466   1.402       .  A
C465        H472   1.084       .  S
C466        S468   1.811       .  S
S467        H470   1.407       .  S
C473        C478   1.437       .  A
C474        C475   1.396       .  A
C474        H483   1.070       .  S
C475        C742   1.422       .  A
C475       S1011   1.815       .  S
C476        C741   1.424   1_545  A
C476       C1009   1.411   1_544  A
C477       C1008   1.411       .  A
C477        C478   1.412       .  A
C477       H1016   1.079       .  S
C478        S480   1.809       .  S
S479       C1007   1.815   1_545  S
S479        H482   1.408   1_545  S
S480        H481   1.406       .  S
H484       C1009   1.076   1_545  S
C485        C486   1.391       .  A
C485        C490   1.404       .  A
C486        C487   1.399       .  A
C486        H495   1.084       .  S
C487        C488   1.445       .  A
C487        S491   1.813   1_556  S
C488        C489   1.419       .  A
C489        C490   1.405       .  A
C489        H496   1.082       .  S
C490        S492   1.806       .  S
S492        H493   1.407       .  S
C497        C498   1.406       .  A
C497        C502   1.414       .  A
C498        C499   1.404       .  A
C498        H507   1.082       .  S
C499        C500   1.430       .  A
C499        S503   1.813       .  S
C500        C501   1.417       .  A
C501        C502   1.398       .  A
C501        H508   1.077       .  S
C502        S504   1.811       .  S
S503        H506   1.406       .  S
S504        H505   1.408       .  S
C509        C514   1.429   1_554  A
C510       C1575   1.395       .  A
C510        H519   1.075       .  S
C511       C1574   1.394   1_455  A
C511        S515   1.809       .  S
C512        C513   1.414       .  A
C513       C1578   1.406   1_455  A
C513        H520   1.073       .  S
C514       C1577   1.407       .  A
C514        S516   1.812       .  S
S515        H518   1.408   1_455  S
S516        H517   1.408       .  S
C521        C526   1.425       .  A
C522        C523   1.411       .  A
C522        H531   1.078       .  S
C523        S527   1.809       .  S
C524        C525   1.415   1_554  A
C525        C526   1.400       .  A
C525        H532   1.071       .  S
C526        S528   1.814       .  S
S527        H530   1.407       .  S
S528        H529   1.408       .  S
C533       C1020   1.579   1_554  S
C533        C766   1.570       .  S
C533       C1041   1.579       .  S
C533       C1056   1.580       .  S
C534        C715   1.567       .  S
C534        C993   1.590       .  S
C534        C739   1.601       .  S
C534        C778   1.571       .  S
C535        C945   1.576       .  S
C535        C694   1.592       .  S
C535        C706   1.572       .  S
C535        C742   1.578       .  S
C536        C643   1.591   1_556  S
C536        C924   1.566       .  S
C536        C670   1.593       .  S
C536        C969   1.603       .  S
C537        C607   1.565       .  S
C537        C888   1.594       .  S
C537        C631   1.592       .  S
C537        C667   1.592       .  S
C538        C852   1.579       .  S
C538        C595   1.586       .  S
C538        C634   1.580       .  S
C538        C787   1.573       .  S
O539       Cr557   1.997       .  S
O539        C547   1.263       .  A
O540       Cr557   1.965       .  S
O540        C541   1.257       .  A
C541        O542   1.266       .  A
C541        C583   1.478       .  S
O542       Cr558   2.012       .  S
O543       Cr558   1.978       .  S
O543        C544   1.259       .  A
C544        O545   1.264       .  A
C544        C730   1.478       .  S
O545       Cr559   2.013       .  S
O546       Cr559   1.976       .  S
O546        C547   1.262       .  A
C547        C646   1.484       .  S
O548       Cr557   1.971       .  S
O548        C556   1.261       .  A
O549       Cr557   2.002       .  S
O549        C550   1.265       .  A
C550        O551   1.259       .  A
C550        C598   1.480       .  S
O551       Cr558   1.980       .  S
O552       Cr558   2.006       .  S
O552        C553   1.266       .  A
C553        O554   1.263       .  A
C553        C718   1.474       .  S
O554       Cr559   1.971       .  S
O555       Cr559   2.019       .  S
O555        C556   1.266       .  A
C556        C655   1.496       .  S
Cr557       O560   1.771       .  S
Cr558       O560   1.774       .  S
Cr559       O560   1.773       .  S
O561       Cr579   1.972       .  S
O561        C569   1.261       .  A
O562       Cr579   2.019       .  S
O562        C563   1.266       .  A
C563        O564   1.260       .  A
C563        C751   1.477       .  S
O564       Cr580   1.974       .  S
O565       Cr580   2.004       .  S
O565        C566   1.265       .  A
C566        O567   1.260       .  A
C566        C610   1.490       .  S
O567       Cr581   1.972       .  S
O568       Cr581   2.032       .  S
O568        C569   1.271       .  A
C569        C691   1.506       .  S
O570       Cr579   2.009       .  S
O570        C578   1.268       .  A
O571       Cr579   1.971       .  S
O571        C572   1.260       .  A
C572        O573   1.267       .  A
C572        C763   1.496       .  S
O573       Cr580   2.018       .  S
O574       Cr580   1.969       .  S
O574        C575   1.259       .  A
C575        O576   1.268       .  A
C575        C619   1.476       .  S
O576       Cr581   2.028       .  S
O577       Cr581   1.971       .  S
O577        C578   1.256       .  A
C578        C682   1.495       .  S
Cr579       O582   1.769       .  S
Cr580       O582   1.762       .  S
Cr581       O582   1.775       .  S
C583        C584   1.394       .  A
C583        C588   1.402       .  A
C584        C585   1.401       .  A
C584        H593   1.085       .  S
C585        C586   1.447       .  A
C585        S589   1.809       .  S
C586        C804   1.575       .  S
C586        C587   1.426       .  A
C587        C588   1.401       .  A
C587        H594   1.080       .  S
C588        S590   1.808       .  S
S589        H592   1.386       .  S
S590        H591   1.407       .  S
C595        C596   1.424       .  A
C595        C600   1.432       .  A
C596        C597   1.399       .  A
C596        H605   1.076       .  S
C597        C598   1.406       .  A
C597        S601   1.804       .  S
C598        C599   1.398       .  A
C599        C600   1.405       .  A
C599        H606   1.083       .  S
C600        S602   1.798       .  S
S601        H604   1.407       .  S
S602        H869   1.407       .  S
H603        S868   1.407       .  S
C607        C608   1.416       .  A
C607        C612   1.433       .  A
C608        C609   1.392       .  A
C608        H617   1.074       .  S
C609        C610   1.413       .  A
C609        S613   1.811       .  S
C610        C611   1.407       .  A
C611        C612   1.409       .  A
C611        H618   1.082       .  S
C612        S880   1.814       .  S
S613        H616   1.408       .  S
S614        C878   1.814       .  S
S614        H615   1.406       .  S
C619        C620   1.389       .  A
C619        C624   1.409       .  A
C620        C621   1.401       .  A
C620        H629   1.084       .  S
C621        C622   1.451       .  A
C621        S891   1.815   1_554  S
C622        C803   1.594       .  S
C622        C623   1.422       .  A
C623        C624   1.405       .  A
C623        H630   1.084       .  S
C624        S626   1.807       .  S
S625        C887   1.812       .  S
S625        H628   1.409       .  S
S626        H627   1.398       .  S
C632        C633   1.399       .  A
C633        C900   1.423       .  A
C633        S637   1.817       .  S
C634        C899   1.422       .  A
C634        C635   1.410       .  A
C635        C636   1.409       .  A
C635        H642   1.080       .  S
S637        H640   1.407       .  S
S638        H639   1.406       .  S
C643        C644   1.414       .  A
C643        C648   1.453       .  A
C644        C645   1.396       .  A
C644        H653   1.062       .  S
C645        C646   1.408       .  A
C645        S649   1.804       .  S
C646        C647   1.396       .  A
C647        C648   1.398       .  A
C647        H654   1.085       .  S
C648        S650   1.819   1_554  S
S649        H652   1.405       .  S
S650        H917   1.395       .  S
H651        S916   1.396       .  S
C655        C656   1.401       .  A
C655        C660   1.418       .  A
C656        C657   1.398       .  A
C656        H665   1.083       .  S
C657        C658   1.434       .  A
C657        S927   1.812       .  S
C658        C802   1.567       .  S
C658        C659   1.416       .  A
C659        C660   1.406       .  A
C659        H666   1.081       .  S
C660        S662   1.801       .  S
S661        C923   1.812       .  S
S661        H664   1.405       .  S
S662        H663   1.405       .  S
C667        C668   1.418       .  A
C667        C938   1.428       .  A
C668       C1733   1.407       .  A
C668        H677   1.073       .  S
C669       C1732   1.406   1_455  A
C669        C936   1.430       .  A
C669        S673   1.804       .  S
C670        C935   1.428       .  A
C670        C671   1.417   1_556  A
C671       C1736   1.397   1_455  A
C671        H678   1.065       .  S
C672        C933   1.427       .  A
C672       C1735   1.395       .  A
C672        S674   1.810       .  S
S673        H676   1.404       .  S
S674        H675   1.408       .  S
C679        C801   1.576   1_554  S
C679        C680   1.423       .  A
C679        C684   1.443       .  A
C680        C681   1.399       .  A
C680        H689   1.081       .  S
C681        C682   1.413       .  A
C681        S685   1.810       .  S
C682        C683   1.400       .  A
C683        C684   1.403       .  A
C683        H690   1.084       .  S
C684        S686   1.805       .  S
S685        H688   1.407       .  S
S686        H687   1.387       .  S
C691        C692   1.404       .  A
C691        C696   1.414       .  A
C692        C693   1.404       .  A
C692        H701   1.082       .  S
C693        C694   1.431       .  A
C693        S697   1.799       .  S
C694        C695   1.425       .  A
C695        C696   1.407       .  A
C695        H702   1.077       .  S
C696        S698   1.800       .  S
S697        H966   1.407       .  S
S698        H699   1.408       .  S
H700        S963   1.407       .  S
C703        C802   1.606       .  S
C703        C704   1.427       .  A
C703        C974   1.441       .  A
C704        C705   1.397       .  A
C704        H713   1.076       .  S
C705        C706   1.420       .  A
C705        S709   1.813       .  S
C706        C973   1.417       .  A
C707        C972   1.417   1_554  A
C707        C708   1.416       .  A
C707        H714   1.081       .  S
C708        C969   1.437   1_554  A
C708        S710   1.814       .  S
S709        H712   1.408       .  S
S710        H711   1.394       .  S
C715        C716   1.420       .  A
C715        C720   1.442       .  A
C716        C717   1.404       .  A
C716        H725   1.082       .  S
C717        C718   1.407       .  A
C717        S721   1.805       .  S
C718        C719   1.393       .  A
C719        C720   1.400       .  A
C719        H726   1.083       .  S
C720        S722   1.817       .  S
S721        H724   1.406       .  S
S722        H723   1.406   1_455  S
C727        C800   1.594   1_554  S
C727        C728   1.426       .  A
C727        C732   1.447       .  A
C728        C729   1.401       .  A
C728        H737   1.084       .  S
C729        C730   1.405       .  A
C729        S733   1.804       .  S
C730        C731   1.393       .  A
C731        C732   1.404       .  A
C731        H738   1.084       .  S
C732        S734   1.814   1_554  S
S733        H736   1.406       .  S
S734       H1001   1.407   1_556  S
H735       S1000   1.408       .  S
C739       C1006   1.418       .  A
C739        C744   1.436       .  A
C740       C1005   1.419   1_554  A
C740        C741   1.402       .  A
C740        H749   1.068       .  S
C743        C744   1.413       .  A
C744        S746   1.808       .  S
S745        H748   1.407       .  S
S746        H747   1.407       .  S
C751        C752   1.392       .  A
C751        C756   1.408       .  A
C752        C753   1.401       .  A
C752        H761   1.084       .  S
C753        C754   1.446       .  A
C753        S757   1.814       .  S
C754        C799   1.584       .  S
C754        C755   1.417       .  A
C755        C756   1.401       .  A
C755        H762   1.083       .  S
C756        S758   1.802       .  S
S757       H1026   1.407       .  S
S758        H759   1.401       .  S
H760       S1023   1.407   1_556  S
C763        C764   1.406       .  A
C763        C768   1.414       .  A
C764        C765   1.405       .  A
C764        H773   1.082       .  S
C765        C766   1.431       .  A
C765        S769   1.812       .  S
C766        C767   1.417       .  A
C767        C768   1.401       .  A
C767        H774   1.077       .  S
C768        S770   1.810       .  S
S769        H772   1.407       .  S
S770        H771   1.407       .  S
C775        C799   1.576       .  S
C775       C1042   1.412       .  A
C775        C780   1.429       .  A
C776       C1041   1.411       .  A
C776       C1841   1.396       .  A
C776        H785   1.071       .  S
C777       C1840   1.398   1_455  A
C777       C1044   1.430   1_554  A
C777        S781   1.811       .  S
C778       C1043   1.428       .  A
C778        C779   1.413       .  A
C779       C1844   1.406   1_455  A
C779        H786   1.073       .  S
C780       C1843   1.405       .  A
C780        S782   1.814       .  S
S781        H784   1.407   1_455  S
S782        H783   1.407       .  S
C787       C1054   1.411       .  A
C787        C792   1.425       .  A
C788       C1053   1.412       .  A
C788        C789   1.409       .  A
C788        H797   1.075       .  S
C789       C1056   1.430       .  A
C789        S793   1.810       .  S
C790        C799   1.583       .  S
C790       C1055   1.433       .  A
C790        C791   1.416       .  A
C791        C792   1.403       .  A
C791        H798   1.071       .  S
C792        S794   1.813       .  S
S793        H796   1.406       .  S
S794        H795   1.407       .  S
C799       C1032   1.565       .  S
C800        C981   1.571       .  S
C800       C1005   1.603       .  S
C800       C1044   1.575       .  S
C801        C960   1.591       .  S
C801        C972   1.572       .  S
C801       C1008   1.582       .  S
C802        C909   1.598       .  S
C802        C936   1.592       .  S
C803        C873   1.563   1_554  S
C803        C897   1.597       .  S
C803        C933   1.592       .  S
C804        C861   1.588   1_554  S
C804        C900   1.580       .  S
C804       C1053   1.570       .  S
O805       Cr823   2.003       .  S
O805        C813   1.264       .  A
O806       Cr823   1.971       .  S
O806        C807   1.258       .  A
C807        O808   1.267       .  A
C807        C849   1.482       .  S
O808       Cr824   2.016       .  S
O809       Cr824   1.975       .  S
O809        C810   1.258       .  A
C810        O811   1.263       .  A
C810        C996   1.473       .  S
O811       Cr825   2.006       .  S
O812       Cr825   1.979       .  S
O812        C813   1.262       .  A
C813        C912   1.486       .  S
O814       Cr823   1.970       .  S
O814        C822   1.261       .  A
O815       Cr823   2.006       .  S
O815        C816   1.266       .  A
C816        O817   1.259       .  A
C816        C864   1.483       .  S
O817       Cr824   1.980       .  S
O818       Cr824   2.014       .  S
O818        C819   1.267       .  A
C819        O820   1.263       .  A
C819        C984   1.480       .  S
O820       Cr825   1.973       .  S
O821       Cr825   2.016       .  S
O821        C822   1.265       .  A
C822        C921   1.495       .  S
Cr823       O826   1.771       .  S
Cr824       O826   1.775       .  S
Cr825       O826   1.774       .  S
O827       Cr845   1.971       .  S
O827        C835   1.260       .  A
O828       Cr845   2.017       .  S
O828        C829   1.266       .  A
C829        O830   1.259       .  A
C829       C1017   1.472       .  S
O830       Cr846   1.967       .  S
O831       Cr846   2.009       .  S
O831        C832   1.266       .  A
C832        O833   1.260       .  A
C832        C876   1.489       .  S
O833       Cr847   1.969       .  S
O834       Cr847   2.029       .  S
O834        C835   1.269       .  A
C835        C957   1.504       .  S
O836       Cr845   2.012       .  S
O836        C844   1.270       .  A
O837       Cr845   1.963       .  S
O837        C838   1.258       .  A
C838        O839   1.267       .  A
C838       C1029   1.490       .  S
O839       Cr846   2.017       .  S
O840       Cr846   1.970       .  S
O840        C841   1.260       .  A
C841        O842   1.268       .  A
C841        C885   1.475       .  S
O842       Cr847   2.029       .  S
O843       Cr847   1.969       .  S
O843        C844   1.257       .  A
C844        C948   1.494       .  S
Cr845       O848   1.767       .  S
Cr846       O848   1.761       .  S
Cr847       O848   1.770       .  S
C849        C850   1.395       .  A
C849        C854   1.403       .  A
C850        C851   1.404       .  A
C850        H859   1.085       .  S
C851        C852   1.447       .  A
C851        S855   1.806       .  S
C852        C853   1.425       .  A
C853        C854   1.401       .  A
C853        H860   1.081       .  S
C854        S856   1.806       .  S
S855        H858   1.386       .  S
S856        H857   1.407       .  S
C861        C862   1.423       .  A
C861        C866   1.433       .  A
C862        C863   1.400       .  A
C862        H871   1.076       .  S
C863        C864   1.406       .  A
C863        S867   1.804       .  S
C864        C865   1.399       .  A
C865        C866   1.406       .  A
C865        H872   1.083       .  S
C866        S868   1.799       .  S
S867        H870   1.407       .  S
C873        C874   1.418       .  A
C873        C878   1.433       .  A
C874        C875   1.395       .  A
C874        H883   1.074       .  S
C875        C876   1.412       .  A
C875        S879   1.811       .  S
C876        C877   1.406       .  A
C877        C878   1.406       .  A
C877        H884   1.082       .  S
S879        H882   1.408       .  S
S880        H881   1.406       .  S
C885        C886   1.387       .  A
C885        C890   1.406       .  A
C886        C887   1.400       .  A
C886        H895   1.085       .  S
C887        C888   1.452       .  A
C888        C889   1.423       .  A
C889        C890   1.405       .  A
C889        H896   1.084       .  S
C890        S892   1.803       .  S
S891        H894   1.407   1_556  S
S892        H893   1.404       .  S
C898        C899   1.398       .  A
C899        S903   1.817       .  S
C900        C901   1.408   1_554  A
C901        C902   1.409       .  A
C901        H908   1.079       .  S
S903        H906   1.407       .  S
S904        H905   1.407       .  S
C909        C910   1.415       .  A
C909        C914   1.457       .  A
C910        C911   1.399       .  A
C910        H919   1.062       .  S
C911        C912   1.407       .  A
C911        S915   1.804       .  S
C912        C913   1.394       .  A
C913        C914   1.400       .  A
C913        H920   1.085       .  S
C914        S916   1.822       .  S
S915        H918   1.408       .  S
C921        C922   1.399       .  A
C921        C926   1.418       .  A
C922        C923   1.394       .  A
C922        H931   1.083       .  S
C923        C924   1.434       .  A
C924        C925   1.416       .  A
C925        C926   1.411       .  A
C925        H932   1.079       .  S
C926        S928   1.807       .  S
S927        H930   1.406       .  S
S928        H929   1.407       .  S
C933        C934   1.419   1_554  A
C934       C1999   1.413       .  A
C934        H943   1.068       .  S
C935       C1998   1.412   1_455  A
C935        S939   1.809       .  S
C936        C937   1.414       .  A
C937       C2002   1.399   1_455  A
C937        H944   1.060       .  S
C938       C2001   1.399       .  A
C938        S940   1.808       .  S
S939        H942   1.406   1_455  S
S940        H941   1.408       .  S
C945        C946   1.423       .  A
C945        C950   1.444       .  A
C946        C947   1.399       .  A
C946        H955   1.081       .  S
C947        C948   1.413       .  A
C947        S951   1.811       .  S
C948        C949   1.400       .  A
C949        C950   1.402       .  A
C949        H956   1.084       .  S
C950        S952   1.807       .  S
S951        H954   1.407       .  S
S952        H953   1.389       .  S
C957        C958   1.403       .  A
C957        C962   1.413       .  A
C958        C959   1.404       .  A
C958        H967   1.082       .  S
C959        C960   1.433       .  A
C959        S963   1.801       .  S
C960        C961   1.424       .  A
C961        C962   1.409       .  A
C961        H968   1.075       .  S
C962        S964   1.808       .  S
S964        H965   1.408       .  S
C969        C970   1.426       .  A
C970        C971   1.398       .  A
C970        H979   1.076       .  S
C971        C972   1.421       .  A
C971        S975   1.813       .  S
C973        C974   1.417       .  A
C973        H980   1.082       .  S
C974        S976   1.817       .  S
S975        H978   1.408       .  S
S976        H977   1.395       .  S
C981        C982   1.422       .  A
C981        C986   1.442       .  A
C982        C983   1.407       .  A
C982        H991   1.082       .  S
C983        C984   1.408       .  A
C983        S987   1.805       .  S
C984        C985   1.394       .  A
C985        C986   1.400       .  A
C985        H992   1.083       .  S
C986        S988   1.814       .  S
S987        H990   1.407       .  S
S988        H989   1.407   1_455  S
C993        C994   1.425       .  A
C993        C998   1.445       .  A
C994        C995   1.397       .  A
C994       H1003   1.083       .  S
C995        C996   1.403       .  A
C995        S999   1.804       .  S
C996        C997   1.393       .  A
C997        C998   1.403       .  A
C997       H1004   1.084       .  S
C998       S1000   1.811       .  S
S999       H1002   1.407       .  S
C1005      C1010   1.437       .  A
C1006      C1007   1.398       .  A
C1006      H1015   1.069       .  S
C1009      C1010   1.412       .  A
C1010      S1012   1.811       .  S
S1011      H1014   1.408       .  S
S1012      H1013   1.406       .  S
C1017      C1018   1.392       .  A
C1017      C1022   1.403       .  A
C1018      C1019   1.398       .  A
C1018      H1027   1.085       .  S
C1019      C1020   1.442       .  A
C1019      S1023   1.812   1_556  S
C1020      C1021   1.419       .  A
C1021      C1022   1.404       .  A
C1021      H1028   1.081       .  S
C1022      S1024   1.806       .  S
S1024      H1025   1.407       .  S
C1029      C1030   1.405       .  A
C1029      C1034   1.412       .  A
C1030      C1031   1.402       .  A
C1030      H1039   1.082       .  S
C1031      C1032   1.430       .  A
C1031      S1035   1.813       .  S
C1032      C1033   1.418       .  A
C1033      C1034   1.401       .  A
C1033      H1040   1.077       .  S
C1034      S1036   1.811       .  S
S1035      H1038   1.406       .  S
S1036      H1037   1.407       .  S
C1041      C1046   1.431   1_554  A
C1042      C2107   1.396       .  A
C1042      H1051   1.073       .  S
C1043      C2106   1.395   1_455  A
C1043      S1047   1.810       .  S
C1044      C1045   1.414       .  A
C1045      C2110   1.406   1_455  A
C1045      H1052   1.073       .  S
C1046      C2109   1.408       .  A
C1046      S1048   1.813       .  S
S1047      H1050   1.408   1_455  S
S1048      H1049   1.407       .  S
C1053      C1058   1.423   1_554  A
C1054      C1055   1.410       .  A
C1054      H1063   1.078       .  S
C1055      S1059   1.808       .  S
C1056      C1057   1.417   1_554  A
C1057      C1058   1.400       .  A
C1057      H1064   1.071       .  S
C1058      S1060   1.814       .  S
S1059      H1062   1.407       .  S
S1060      H1061   1.407       .  S
C1065      C1552   1.581   1_554  S
C1065      C1298   1.569       .  S
C1065      C1573   1.578       .  S
C1065      C1588   1.580       .  S
C1066      C1247   1.568       .  S
C1066      C1525   1.593       .  S
C1066      C1271   1.598       .  S
C1066      C1310   1.574       .  S
C1067      C1477   1.580       .  S
C1067      C1226   1.594       .  S
C1067      C1238   1.575       .  S
C1067      C1274   1.583       .  S
C1068      C1175   1.593   1_556  S
C1068      C1456   1.565       .  S
C1068      C1202   1.587   1_556  S
C1068      C1501   1.605       .  S
C1069      C1139   1.565       .  S
C1069      C1420   1.595       .  S
C1069      C1163   1.596       .  S
C1069      C1199   1.594       .  S
C1070      C1384   1.575       .  S
C1070      C1127   1.581       .  S
C1070      C1166   1.580       .  S
C1070      C1319   1.569       .  S
O1071     Cr1089   1.999       .  S
O1071      C1079   1.263       .  A
O1072     Cr1089   1.968       .  S
O1072      C1073   1.258       .  A
C1073      O1074   1.268       .  A
C1073      C1115   1.481       .  S
O1074     Cr1090   2.017       .  S
O1075     Cr1090   1.980       .  S
O1075      C1076   1.260       .  A
C1076      O1077   1.264       .  A
C1076      C1262   1.481       .  S
O1077     Cr1091   2.013       .  S
O1078     Cr1091   1.978       .  S
O1078      C1079   1.263       .  A
C1079      C1178   1.483       .  S
O1080     Cr1089   1.971       .  S
O1080      C1088   1.260       .  A
O1081     Cr1089   2.000       .  S
O1081      C1082   1.264       .  A
C1082      O1083   1.259       .  A
C1082      C1130   1.481       .  S
O1083     Cr1090   1.982       .  S
O1084     Cr1090   2.011       .  S
O1084      C1085   1.267       .  A
C1085      O1086   1.263       .  A
C1085      C1250   1.477       .  S
O1086     Cr1091   1.971       .  S
O1087     Cr1091   2.018       .  S
O1087      C1088   1.266       .  A
C1088      C1187   1.496       .  S
Cr1089     O1092   1.773       .  S
Cr1090     O1092   1.774       .  S
Cr1091     O1092   1.772       .  S
O1093     Cr1111   1.980       .  S
O1093      C1101   1.261       .  A
O1094     Cr1111   2.017       .  S
O1094      C1095   1.266       .  A
C1095      O1096   1.260       .  A
C1095      C1283   1.474       .  S
O1096     Cr1112   1.972       .  S
O1097     Cr1112   2.008       .  S
O1097      C1098   1.265       .  A
C1098      O1099   1.259       .  A
C1098      C1142   1.489       .  S
O1099     Cr1113   1.969       .  S
O1100     Cr1113   2.032       .  S
O1100      C1101   1.270       .  A
C1101      C1223   1.508       .  S
O1102     Cr1111   2.015       .  S
O1102      C1110   1.270       .  A
O1103     Cr1111   1.974       .  S
O1103      C1104   1.261       .  A
C1104      O1105   1.267       .  A
C1104      C1295   1.496       .  S
O1105     Cr1112   2.016       .  S
O1106     Cr1112   1.970       .  S
O1106      C1107   1.259       .  A
C1107      O1108   1.270       .  A
C1107      C1151   1.479       .  S
O1108     Cr1113   2.031       .  S
O1109     Cr1113   1.961       .  S
O1109      C1110   1.255       .  A
C1110      C1214   1.492       .  S
Cr1111     O1114   1.768       .  S
Cr1112     O1114   1.763       .  S
Cr1113     O1114   1.771       .  S
C1115      C1116   1.395       .  A
C1115      C1120   1.402       .  A
C1116      C1117   1.404       .  A
C1116      H1125   1.085       .  S
C1117      C1118   1.447       .  A
C1117      S1121   1.807       .  S
C1118      C1336   1.578       .  S
C1118      C1119   1.425       .  A
C1119      C1120   1.401       .  A
C1119      H1126   1.081       .  S
C1120      S1122   1.806       .  S
S1121      H1124   1.385       .  S
S1122      H1123   1.407       .  S
C1127      C1128   1.422       .  A
C1127      C1132   1.432       .  A
C1128      C1129   1.398       .  A
C1128      H1137   1.076       .  S
C1129      C1130   1.405       .  A
C1129      S1133   1.803       .  S
C1130      C1131   1.400       .  A
C1131      C1132   1.405       .  A
C1131      H1138   1.083       .  S
C1132      S1134   1.802       .  S
S1133      H1136   1.407       .  S
S1134      H1401   1.407       .  S
H1135      S1400   1.407       .  S
C1139      C1140   1.417       .  A
C1139      C1144   1.433       .  A
C1140      C1141   1.393       .  A
C1140      H1149   1.074       .  S
C1141      C1142   1.411       .  A
C1141      S1145   1.810       .  S
C1142      C1143   1.407       .  A
C1143      C1144   1.408       .  A
C1143      H1150   1.082       .  S
C1144      S1412   1.813       .  S
S1145      H1148   1.408       .  S
S1146      C1410   1.814       .  S
S1146      H1147   1.406   1_545  S
C1151      C1152   1.390       .  A
C1151      C1156   1.407       .  A
C1152      C1153   1.402       .  A
C1152      H1161   1.084       .  S
C1153      C1154   1.450       .  A
C1153      S1423   1.813   1_554  S
C1154      C1335   1.594       .  S
C1154      C1155   1.422       .  A
C1155      C1156   1.406       .  A
C1155      H1162   1.084       .  S
C1156      S1158   1.803       .  S
S1157      C1419   1.812       .  S
S1157      H1160   1.408       .  S
S1158      H1159   1.403       .  S
C1163      C1962   1.418   1_545  A
C1163      C1700   1.439   1_545  A
C1164      C1961   1.419       .  A
C1164      C1165   1.400       .  A
C1164      H1705   1.064       .  S
C1165      C1432   1.422       .  A
C1165      S1169   1.816       .  S
C1166      C1431   1.421       .  A
C1166      C1167   1.409       .  A
C1167      C1168   1.407       .  A
C1167      H1174   1.079       .  S
C1168      C1695   1.440       .  A
C1168      S1702   1.815       .  S
S1169      H1172   1.408       .  S
S1170      C1700   1.815   1_545  S
S1170      H1171   1.406   1_545  S
H1173      C1696   1.067   1_545  S
C1175      C1176   1.414       .  A
C1175      C1180   1.455       .  A
C1176      C1177   1.399       .  A
C1176      H1185   1.065       .  S
C1177      C1178   1.408       .  A
C1177      S1181   1.804       .  S
C1178      C1179   1.393       .  A
C1179      C1180   1.397       .  A
C1179      H1186   1.085       .  S
C1180      S1182   1.817   1_554  S
S1181      H1184   1.408       .  S
S1182      H1449   1.397       .  S
H1183      S1448   1.407       .  S
C1187      C1188   1.402       .  A
C1187      C1192   1.418       .  A
C1188      C1189   1.398       .  A
C1188      H1197   1.082       .  S
C1189      C1190   1.433       .  A
C1189      S1459   1.813       .  S
C1190      C1334   1.567       .  S
C1190      C1191   1.417       .  A
C1191      C1192   1.408       .  A
C1191      H1198   1.079       .  S
C1192      S1194   1.807       .  S
S1193      C1455   1.812       .  S
S1193      H1196   1.405       .  S
S1194      H1195   1.407       .  S
C1199      C1200   1.418       .  A
C1199      C1470   1.428       .  A
C1200      H1209   1.073       .  S
C1201      C1468   1.427       .  A
C1201      S1205   1.803       .  S
C1202      C1467   1.426   1_554  A
C1202      C1203   1.416       .  A
C1203      H1210   1.067       .  S
C1204      C1465   1.428       .  A
C1204      S1206   1.807       .  S
S1205      H1208   1.405       .  S
S1206      H1207   1.409   1_554  S
C1211      C1333   1.576   1_554  S
C1211      C1212   1.421       .  A
C1211      C1216   1.445       .  A
C1212      C1213   1.398       .  A
C1212      H1221   1.081       .  S
C1213      C1214   1.413       .  A
C1213      S1217   1.811       .  S
C1214      C1215   1.398       .  A
C1215      C1216   1.402       .  A
C1215      H1222   1.084       .  S
C1216      S1218   1.806       .  S
S1217      H1220   1.408       .  S
S1218      H1219   1.388       .  S
C1223      C1224   1.404       .  A
C1223      C1228   1.414       .  A
C1224      C1225   1.407       .  A
C1224      H1233   1.082       .  S
C1225      C1226   1.433       .  A
C1225      S1229   1.800       .  S
C1226      C1227   1.424       .  A
C1227      C1228   1.407       .  A
C1227      H1234   1.078       .  S
C1228      S1230   1.801       .  S
S1229      H1498   1.407       .  S
S1230      H1231   1.407       .  S
H1232      S1495   1.407       .  S
C1235      C1334   1.607       .  S
C1235      C1236   1.426       .  A
C1235      C1506   1.441       .  A
C1236      C1237   1.400       .  A
C1236      H1245   1.076       .  S
C1237      C1238   1.421       .  A
C1237      S1241   1.815       .  S
C1238      C1505   1.416       .  A
C1239      C1504   1.416   1_554  A
C1239      C1240   1.418       .  A
C1239      H1246   1.082       .  S
C1240      C1501   1.440   1_554  A
C1240      S1242   1.815       .  S
S1241      H1244   1.407       .  S
S1242      H1243   1.394       .  S
C1247      C1248   1.422       .  A
C1247      C1252   1.441       .  A
C1248      C1249   1.405       .  A
C1248      H1257   1.082       .  S
C1249      C1250   1.407       .  A
C1249      S1253   1.805       .  S
C1250      C1251   1.394       .  A
C1251      C1252   1.400       .  A
C1251      H1258   1.084       .  S
C1252      S1254   1.813       .  S
S1253      H1256   1.407       .  S
S1254      H1255   1.407       .  S
C1259      C1332   1.597   1_554  S
C1259      C1260   1.426       .  A
C1259      C1264   1.447       .  A
C1260      C1261   1.402       .  A
C1260      H1269   1.083       .  S
C1261      C1262   1.406       .  A
C1261      S1265   1.804       .  S
C1262      C1263   1.393       .  A
C1263      C1264   1.405       .  A
C1263      H1270   1.083       .  S
C1264      S1266   1.815   1_554  S
S1265      H1268   1.406       .  S
S1266      H1533   1.407   1_556  S
H1267      S1532   1.407       .  S
C1271      C1538   1.416       .  A
C1271      C1276   1.436       .  A
C1272      C1537   1.418   1_554  A
C1272      C1273   1.400       .  A
C1272      H1281   1.069       .  S
C1273      C2072   1.424       .  A
C1273      S1809   1.816       .  S
C1274      C2071   1.424   1_545  A
C1274      C1807   1.411   1_545  A
C1275      C1806   1.412       .  A
C1275      C1276   1.411       .  A
C1275      H1814   1.079       .  S
C1276      S1278   1.809       .  S
S1277      C1805   1.815   1_545  S
S1277      H1280   1.408   1_545  S
S1278      H1279   1.406       .  S
H1282      C1807   1.078   1_545  S
C1283      C1284   1.392       .  A
C1283      C1288   1.407       .  A
C1284      C1285   1.399       .  A
C1284      H1293   1.084       .  S
C1285      C1286   1.444       .  A
C1285      S1289   1.813       .  S
C1286      C1331   1.581       .  S
C1286      C1287   1.417       .  A
C1287      C1288   1.399       .  A
C1287      H1294   1.083       .  S
C1288      S1290   1.802       .  S
S1289      H1558   1.407       .  S
S1290      H1291   1.400       .  S
H1292      S1555   1.407       .  S
C1295      C1296   1.405       .  A
C1295      C1300   1.415       .  A
C1296      C1297   1.403       .  A
C1296      H1305   1.082       .  S
C1297      C1298   1.431       .  A
C1297      S1301   1.811       .  S
C1298      C1299   1.417       .  A
C1299      C1300   1.402       .  A
C1299      H1306   1.076       .  S
C1300      S1302   1.811       .  S
S1301      H1304   1.407       .  S
S1302      H1303   1.407       .  S
C1307      C1331   1.575       .  S
C1307      C1574   1.412       .  A
C1307      C1312   1.429       .  A
C1308      C1573   1.412       .  A
C1308      H1317   1.074       .  S
C1309      C1576   1.427   1_554  A
C1309      S1313   1.810       .  S
C1310      C1575   1.428       .  A
C1310      C1311   1.415       .  A
C1311      H1318   1.072       .  S
C1312      S1314   1.815       .  S
S1313      H1316   1.407       .  S
S1314      H1315   1.407       .  S
C1319      C1586   1.412       .  A
C1319      C1324   1.423       .  A
C1320      C1585   1.412       .  A
C1320      C1321   1.409       .  A
C1320      H1329   1.078       .  S
C1321      C1588   1.431       .  A
C1321      S1325   1.808       .  S
C1322      C1331   1.579       .  S
C1322      C1587   1.433       .  A
C1322      C1323   1.415       .  A
C1323      C1324   1.399       .  A
C1323      H1330   1.070       .  S
C1324      S1326   1.815       .  S
S1325      H1328   1.407       .  S
S1326      H1327   1.407       .  S
C1331      C1564   1.563       .  S
C1332      C1513   1.570       .  S
C1332      C1537   1.598       .  S
C1332      C1576   1.573       .  S
C1333      C1492   1.593       .  S
C1333      C1504   1.571       .  S
C1333      C1540   1.585   1_556  S
C1334      C1441   1.602       .  S
C1334      C1468   1.590       .  S
C1335      C1405   1.564   1_554  S
C1335      C1429   1.595       .  S
C1335      C1465   1.589       .  S
C1336      C1393   1.587   1_554  S
C1336      C1432   1.579       .  S
C1336      C1585   1.570       .  S
O1337     Cr1355   2.000       .  S
O1337      C1345   1.262       .  A
O1338     Cr1355   1.968       .  S
O1338      C1339   1.258       .  A
C1339      O1340   1.266       .  A
C1339      C1381   1.478       .  S
O1340     Cr1356   2.011       .  S
O1341     Cr1356   1.979       .  S
O1341      C1342   1.260       .  A
C1342      O1343   1.264       .  A
C1342      C1528   1.478       .  S
O1343     Cr1357   2.010       .  S
O1344     Cr1357   1.982       .  S
O1344      C1345   1.263       .  A
C1345      C1444   1.487       .  S
O1346     Cr1355   1.968       .  S
O1346      C1354   1.260       .  A
O1347     Cr1355   2.001       .  S
O1347      C1348   1.264       .  A
C1348      O1349   1.260       .  A
C1348      C1396   1.480       .  S
O1349     Cr1356   1.980       .  S
O1350     Cr1356   2.008       .  S
O1350      C1351   1.266       .  A
C1351      O1352   1.263       .  A
C1351      C1516   1.477       .  S
O1352     Cr1357   1.975       .  S
O1353     Cr1357   2.015       .  S
O1353      C1354   1.266       .  A
C1354      C1453   1.494       .  S
Cr1355     O1358   1.773       .  S
Cr1356     O1358   1.774       .  S
Cr1357     O1358   1.772       .  S
O1359     Cr1377   1.975       .  S
O1359      C1367   1.260       .  A
O1360     Cr1377   2.021       .  S
O1360      C1361   1.267       .  A
C1361      O1362   1.260       .  A
C1361      C1549   1.476       .  S
O1362     Cr1378   1.972       .  S
O1363     Cr1378   2.005       .  S
O1363      C1364   1.264       .  A
C1364      O1365   1.259       .  A
C1364      C1408   1.487       .  S
O1365     Cr1379   1.967       .  S
O1366     Cr1379   2.032       .  S
O1366      C1367   1.270       .  A
C1367      C1489   1.505       .  S
O1368     Cr1377   2.018       .  S
O1368      C1376   1.271       .  A
O1369     Cr1377   1.968       .  S
O1369      C1370   1.260       .  A
C1370      O1371   1.265       .  A
C1370      C1561   1.491       .  S
O1371     Cr1378   2.010       .  S
O1372     Cr1378   1.973       .  S
O1372      C1373   1.260       .  A
C1373      O1374   1.269       .  A
C1373      C1417   1.478       .  S
O1374     Cr1379   2.032       .  S
O1375     Cr1379   1.965       .  S
O1375      C1376   1.256       .  A
C1376      C1480   1.496       .  S
Cr1377     O1380   1.768       .  S
Cr1378     O1380   1.761       .  S
Cr1379     O1380   1.771       .  S
C1381      C1382   1.395       .  A
C1381      C1386   1.403       .  A
C1382      C1383   1.405       .  A
C1382      H1391   1.083       .  S
C1383      C1384   1.442       .  A
C1383      S1387   1.808       .  S
C1384      C1385   1.423       .  A
C1385      C1386   1.400       .  A
C1385      H1392   1.081       .  S
C1386      S1388   1.807       .  S
S1387      H1390   1.407       .  S
S1388      H1389   1.407       .  S
C1393      C1394   1.424       .  A
C1393      C1398   1.432       .  A
C1394      C1395   1.398       .  A
C1394      H1403   1.075       .  S
C1395      C1396   1.404       .  A
C1395      S1399   1.804       .  S
C1396      C1397   1.399       .  A
C1397      C1398   1.406       .  A
C1397      H1404   1.083       .  S
C1398      S1400   1.799       .  S
S1399      H1402   1.407       .  S
C1405      C1406   1.418       .  A
C1405      C1410   1.432       .  A
C1406      C1407   1.393       .  A
C1406      H1415   1.074       .  S
C1407      C1408   1.412       .  A
C1407      S1411   1.812       .  S
C1408      C1409   1.406       .  A
C1409      C1410   1.405       .  A
C1409      H1416   1.081       .  S
S1411      H1414   1.407       .  S
S1412      H1413   1.406   1_545  S
C1417      C1418   1.388       .  A
C1417      C1422   1.406       .  A
C1418      C1419   1.402       .  A
C1418      H1427   1.085       .  S
C1419      C1420   1.453       .  A
C1420      C1421   1.422       .  A
C1421      C1422   1.405       .  A
C1421      H1428   1.084       .  S
C1422      S1424   1.802       .  S
S1423      H1426   1.408   1_556  S
S1424      H1425   1.403       .  S
C1429      C1696   1.417   1_545  A
C1429      C1966   1.440   1_544  A
C1430      C1695   1.419       .  A
C1430      C1431   1.400       .  A
C1430      H1971   1.065       .  S
C1431      S1435   1.818       .  S
C1432      C1433   1.408   1_554  A
C1433      C1434   1.406       .  A
C1433      H1440   1.080       .  S
C1434      C1961   1.442   1_556  A
C1434      S1968   1.817       .  S
S1435      H1438   1.407       .  S
S1436      C1966   1.816   1_545  S
S1436      H1437   1.406   1_545  S
H1439      C1962   1.067   1_545  S
C1441      C1442   1.414       .  A
C1441      C1446   1.455       .  A
C1442      C1443   1.400       .  A
C1442      H1451   1.061       .  S
C1443      C1444   1.408       .  A
C1443      S1447   1.804       .  S
C1444      C1445   1.393       .  A
C1445      C1446   1.401       .  A
C1445      H1452   1.083       .  S
C1446      S1448   1.823       .  S
S1447      H1450   1.405       .  S
C1453      C1454   1.401       .  A
C1453      C1458   1.417       .  A
C1454      C1455   1.397       .  A
C1454      H1463   1.083       .  S
C1455      C1456   1.434       .  A
C1456      C1457   1.415       .  A
C1457      C1458   1.403       .  A
C1457      H1464   1.080       .  S
C1458      S1460   1.800       .  S
S1459      H1462   1.406       .  S
S1460      H1461   1.405       .  S
C1465      C1466   1.416       .  A
C1466      H1475   1.075       .  S
C1467      S1471   1.811       .  S
C1468      C1469   1.413       .  A
C1469      H1476   1.055       .  S
C1470      S1472   1.807       .  S
S1471      H1474   1.406       .  S
S1472      H1473   1.409       .  S
C1477      C1478   1.422       .  A
C1477      C1482   1.444       .  A
C1478      C1479   1.400       .  A
C1478      H1487   1.080       .  S
C1479      C1480   1.414       .  A
C1479      S1483   1.812       .  S
C1480      C1481   1.399       .  A
C1481      C1482   1.404       .  A
C1481      H1488   1.084       .  S
C1482      S1484   1.802       .  S
S1483      H1486   1.407       .  S
S1484      H1485   1.388       .  S
C1489      C1490   1.403       .  A
C1489      C1494   1.413       .  A
C1490      C1491   1.405       .  A
C1490      H1499   1.082       .  S
C1491      C1492   1.434       .  A
C1491      S1495   1.800       .  S
C1492      C1493   1.425       .  A
C1493      C1494   1.407       .  A
C1493      H1500   1.078       .  S
C1494      S1496   1.801       .  S
S1496      H1497   1.407       .  S
C1501      C1502   1.428       .  A
C1502      C1503   1.398       .  A
C1502      H1511   1.075       .  S
C1503      C1504   1.418       .  A
C1503      S1507   1.813       .  S
C1505      C1506   1.418       .  A
C1505      H1512   1.082       .  S
C1506      S1508   1.816       .  S
S1507      H1510   1.408       .  S
S1508      H1509   1.395       .  S
C1513      C1514   1.421       .  A
C1513      C1518   1.442       .  A
C1514      C1515   1.407       .  A
C1514      H1523   1.082       .  S
C1515      C1516   1.408       .  A
C1515      S1519   1.806       .  S
C1516      C1517   1.393       .  A
C1517      C1518   1.400       .  A
C1517      H1524   1.083       .  S
C1518      S1520   1.815       .  S
S1519      H1522   1.407       .  S
S1520      H1521   1.407       .  S
C1525      C1526   1.425       .  A
C1525      C1530   1.447       .  A
C1526      C1527   1.399       .  A
C1526      H1535   1.083       .  S
C1527      C1528   1.405       .  A
C1527      S1531   1.804       .  S
C1528      C1529   1.393       .  A
C1529      C1530   1.405       .  A
C1529      H1536   1.083       .  S
C1530      S1532   1.815       .  S
S1531      H1534   1.406       .  S
C1537      C1542   1.436       .  A
C1538      C1539   1.399       .  A
C1538      H1547   1.069       .  S
C1539      C1806   1.425       .  A
C1539      S2075   1.816       .  S
C1540      C1805   1.425   1_545  A
C1540      C2073   1.411   1_544  A
C1541      C2072   1.410   1_556  A
C1541      C1542   1.408       .  A
C1541      H2080   1.079       .  S
C1542      S1544   1.807       .  S
S1543      C2071   1.815   1_545  S
S1543      H1546   1.408   1_545  S
S1544      H1545   1.407       .  S
H1548      C2073   1.079   1_545  S
C1549      C1550   1.393       .  A
C1549      C1554   1.408       .  A
C1550      C1551   1.400       .  A
C1550      H1559   1.084       .  S
C1551      C1552   1.442       .  A
C1551      S1555   1.811   1_556  S
C1552      C1553   1.417       .  A
C1553      C1554   1.400       .  A
C1553      H1560   1.083       .  S
C1554      S1556   1.802       .  S
S1556      H1557   1.401       .  S
C1561      C1562   1.405       .  A
C1561      C1566   1.414       .  A
C1562      C1563   1.402       .  A
C1562      H1571   1.082       .  S
C1563      C1564   1.430       .  A
C1563      S1567   1.813       .  S
C1564      C1565   1.416       .  A
C1565      C1566   1.398       .  A
C1565      H1572   1.077       .  S
C1566      S1568   1.811       .  S
S1567      H1570   1.406       .  S
S1568      H1569   1.407       .  S
C1573      C1578   1.431   1_554  A
C1574      H1583   1.074       .  S
C1575      S1579   1.810       .  S
C1576      C1577   1.416       .  A
C1577      H1584   1.073       .  S
C1578      S1580   1.813       .  S
S1579      H1582   1.407       .  S
S1580      H1581   1.407       .  S
C1585      C1590   1.424   1_554  A
C1586      C1587   1.409       .  A
C1586      H1595   1.078       .  S
C1587      S1591   1.809       .  S
C1588      C1589   1.416   1_554  A
C1589      C1590   1.399       .  A
C1589      H1596   1.071       .  S
C1590      S1592   1.812       .  S
S1591      H1594   1.407       .  S
S1592      H1593   1.408       .  S
C1597      C2084   1.587   1_554  S
C1597      C1830   1.569       .  S
C1597      C2105   1.578       .  S
C1597      C2120   1.580       .  S
C1598      C1779   1.568       .  S
C1598      C2057   1.592       .  S
C1598      C1803   1.598       .  S
C1598      C1842   1.572       .  S
C1599      C2009   1.581       .  S
C1599      C1758   1.595       .  S
C1599      C1770   1.575       .  S
C1599      C1806   1.584       .  S
C1600      C1707   1.596   1_556  S
C1600      C1988   1.565       .  S
C1600      C1734   1.592       .  S
C1600      C2033   1.604       .  S
C1601      C1671   1.564       .  S
C1601      C1952   1.595       .  S
C1601      C1695   1.595       .  S
C1601      C1731   1.590       .  S
C1602      C1916   1.579       .  S
C1602      C1659   1.588       .  S
C1602      C1698   1.582       .  S
C1602      C1851   1.570       .  S
O1603     Cr1621   1.996       .  S
O1603      C1611   1.262       .  A
O1604     Cr1621   1.977       .  S
O1604      C1605   1.260       .  A
C1605      O1606   1.266       .  A
C1605      C1647   1.485       .  S
O1606     Cr1622   2.012       .  S
O1607     Cr1622   1.980       .  S
O1607      C1608   1.259       .  A
C1608      O1609   1.264       .  A
C1608      C1794   1.479       .  S
O1609     Cr1623   2.013       .  S
O1610     Cr1623   1.972       .  S
O1610      C1611   1.262       .  A
C1611      C1710   1.479       .  S
O1612     Cr1621   1.979       .  S
O1612      C1620   1.262       .  A
O1613     Cr1621   2.001       .  S
O1613      C1614   1.265       .  A
C1614      O1615   1.261       .  A
C1614      C1662   1.483       .  S
O1615     Cr1622   1.984       .  S
O1616     Cr1622   2.007       .  S
O1616      C1617   1.266       .  A
C1617      O1618   1.262       .  A
C1617      C1782   1.475       .  S
O1618     Cr1623   1.971       .  S
O1619     Cr1623   2.015       .  S
O1619      C1620   1.265       .  A
C1620      C1719   1.498       .  S
Cr1621     O1624   1.773       .  S
Cr1622     O1624   1.774       .  S
Cr1623     O1624   1.774       .  S
O1625     Cr1643   1.977       .  S
O1625      C1633   1.261       .  A
O1626     Cr1643   2.017       .  S
O1626      C1627   1.266       .  A
C1627      O1628   1.260       .  A
C1627      C1815   1.475       .  S
O1628     Cr1644   1.974       .  S
O1629     Cr1644   2.011       .  S
O1629      C1630   1.267       .  A
C1630      O1631   1.260       .  A
C1630      C1674   1.490       .  S
O1631     Cr1645   1.968       .  S
O1632     Cr1645   2.034       .  S
O1632      C1633   1.270       .  A
C1633      C1755   1.508       .  S
O1634     Cr1643   2.015       .  S
O1634      C1642   1.270       .  A
O1635     Cr1643   1.971       .  S
O1635      C1636   1.260       .  A
C1636      O1637   1.268       .  A
C1636      C1827   1.498       .  S
O1637     Cr1644   2.020       .  S
O1638     Cr1644   1.975       .  S
O1638      C1639   1.260       .  A
C1639      O1640   1.268       .  A
C1639      C1683   1.478       .  S
O1640     Cr1645   2.029       .  S
O1641     Cr1645   1.967       .  S
O1641      C1642   1.256       .  A
C1642      C1746   1.495       .  S
Cr1643     O1646   1.770       .  S
Cr1644     O1646   1.763       .  S
Cr1645     O1646   1.773       .  S
C1647      C1648   1.394       .  A
C1647      C1652   1.406       .  A
C1648      C1649   1.405       .  A
C1648      H1657   1.084       .  S
C1649      C1650   1.442       .  A
C1649      S1653   1.803       .  S
C1650      C1868   1.580       .  S
C1650      C1651   1.423       .  A
C1651      C1652   1.405       .  A
C1651      H1658   1.081       .  S
C1652      S1654   1.806       .  S
S1653      H1656   1.407       .  S
S1654      H1655   1.407       .  S
C1659      C1660   1.424       .  A
C1659      C1664   1.433       .  A
C1660      C1661   1.399       .  A
C1660      H1669   1.076       .  S
C1661      C1662   1.405       .  A
C1661      S1665   1.804       .  S
C1662      C1663   1.400       .  A
C1663      C1664   1.406       .  A
C1663      H1670   1.083       .  S
C1664      S1666   1.800       .  S
S1665      H1668   1.407       .  S
S1666      H1933   1.407       .  S
H1667      S1932   1.407       .  S
C1671      C1672   1.418       .  A
C1671      C1676   1.432       .  A
C1672      C1673   1.394       .  A
C1672      H1681   1.074       .  S
C1673      C1674   1.412       .  A
C1673      S1677   1.811       .  S
C1674      C1675   1.407       .  A
C1675      C1676   1.407       .  A
C1675      H1682   1.082       .  S
C1676      S1944   1.813       .  S
S1677      H1680   1.408       .  S
S1678      C1942   1.814       .  S
S1678      H1679   1.406       .  S
C1683      C1684   1.387       .  A
C1683      C1688   1.406       .  A
C1684      C1685   1.402       .  A
C1684      H1693   1.084       .  S
C1685      C1686   1.453       .  A
C1685      S1955   1.812   1_554  S
C1686      C1867   1.598       .  S
C1686      C1687   1.424       .  A
C1687      C1688   1.405       .  A
C1687      H1694   1.084       .  S
C1688      S1690   1.802       .  S
S1689      C1951   1.812       .  S
S1689      H1692   1.408       .  S
S1690      H1691   1.404       .  S
C1696      C1697   1.401       .  A
C1697      C1964   1.424       .  A
C1697      S1701   1.816       .  S
C1698      C1963   1.422       .  A
C1698      C1699   1.411       .  A
C1699      C1700   1.410       .  A
C1699      H1706   1.080       .  S
S1701      H1704   1.407       .  S
S1702      H1703   1.407       .  S
C1707      C1708   1.415       .  A
C1707      C1712   1.454       .  A
C1708      C1709   1.396       .  A
C1708      H1717   1.061       .  S
C1709      C1710   1.406       .  A
C1709      S1713   1.805       .  S
C1710      C1711   1.393       .  A
C1711      C1712   1.399       .  A
C1711      H1718   1.083       .  S
C1712      S1714   1.823   1_554  S
S1713      H1716   1.408       .  S
S1714      H1981   1.408   1_556  S
H1715      S1980   1.407       .  S
C1719      C1720   1.401       .  A
C1719      C1724   1.419       .  A
C1720      C1721   1.400       .  A
C1720      H1729   1.082       .  S
C1721      C1722   1.434       .  A
C1721      S1991   1.813       .  S
C1722      C1866   1.568       .  S
C1722      C1723   1.416       .  A
C1723      C1724   1.409       .  A
C1723      H1730   1.079       .  S
C1724      S1726   1.808       .  S
S1725      C1987   1.815       .  S
S1725      H1728   1.405       .  S
S1726      H1727   1.407       .  S
C1731      C1732   1.417       .  A
C1731      C2002   1.429       .  A
C1732      H1741   1.072       .  S
C1733      C2000   1.429       .  A
C1733      S1737   1.803       .  S
C1734      C1999   1.429       .  A
C1734      C1735   1.412   1_556  A
C1735      H1742   1.059       .  S
C1736      C1997   1.428       .  A
C1736      S1738   1.813       .  S
S1737      H1740   1.406       .  S
S1738      H1739   1.407       .  S
C1743      C1865   1.578   1_554  S
C1743      C1744   1.422       .  A
C1743      C1748   1.444       .  A
C1744      C1745   1.398       .  A
C1744      H1753   1.080       .  S
C1745      C1746   1.413       .  A
C1745      S1749   1.811       .  S
C1746      C1747   1.400       .  A
C1747      C1748   1.405       .  A
C1747      H1754   1.084       .  S
C1748      S1750   1.805       .  S
S1749      H1752   1.407       .  S
S1750      H1751   1.388       .  S
C1755      C1756   1.404       .  A
C1755      C1760   1.414       .  A
C1756      C1757   1.407       .  A
C1756      H1765   1.081       .  S
C1757      C1758   1.433       .  A
C1757      S1761   1.802       .  S
C1758      C1759   1.425       .  A
C1759      C1760   1.408       .  A
C1759      H1766   1.077       .  S
C1760      S1762   1.801       .  S
S1761      H2030   1.406       .  S
S1762      H1763   1.407       .  S
H1764      S2027   1.406       .  S
C1767      C1866   1.608       .  S
C1767      C1768   1.426       .  A
C1767      C2038   1.441       .  A
C1768      C1769   1.400       .  A
C1768      H1777   1.076       .  S
C1769      C1770   1.422       .  A
C1769      S1773   1.813       .  S
C1770      C2037   1.417       .  A
C1771      C2036   1.417   1_554  A
C1771      C1772   1.416       .  A
C1771      H1778   1.081       .  S
C1772      C2033   1.438   1_554  A
C1772      S1774   1.816       .  S
S1773      H1776   1.408       .  S
S1774      H1775   1.395       .  S
C1779      C1780   1.421       .  A
C1779      C1784   1.441       .  A
C1780      C1781   1.405       .  A
C1780      H1789   1.082       .  S
C1781      C1782   1.407       .  A
C1781      S1785   1.806       .  S
C1782      C1783   1.393       .  A
C1783      C1784   1.399       .  A
C1783      H1790   1.084       .  S
C1784      S1786   1.814       .  S
S1785      H1788   1.407       .  S
S1786      H1787   1.407       .  S
C1791      C1864   1.596   1_554  S
C1791      C1792   1.426       .  A
C1791      C1796   1.448       .  A
C1792      C1793   1.401       .  A
C1792      H1801   1.084       .  S
C1793      C1794   1.405       .  A
C1793      S1797   1.804       .  S
C1794      C1795   1.393       .  A
C1795      C1796   1.406       .  A
C1795      H1802   1.083       .  S
C1796      S1798   1.817   1_554  S
S1797      H1800   1.406       .  S
S1798      H2065   1.406   1_556  S
H1799      S2064   1.408       .  S
C1803      C2070   1.417       .  A
C1803      C1808   1.436       .  A
C1804      C2069   1.417   1_554  A
C1804      C1805   1.400       .  A
C1804      H1813   1.069       .  S
C1807      C1808   1.410       .  A
C1808      S1810   1.808       .  S
S1809      H1812   1.407       .  S
S1810      H1811   1.407       .  S
C1815      C1816   1.393       .  A
C1815      C1820   1.407       .  A
C1816      C1817   1.401       .  A
C1816      H1825   1.084       .  S
C1817      C1818   1.444       .  A
C1817      S1821   1.812       .  S
C1818      C1863   1.583       .  S
C1818      C1819   1.418       .  A
C1819      C1820   1.400       .  A
C1819      H1826   1.083       .  S
C1820      S1822   1.802       .  S
S1821      H2090   1.407       .  S
S1822      H1823   1.402       .  S
H1824      S2087   1.408       .  S
C1827      C1828   1.407       .  A
C1827      C1832   1.414       .  A
C1828      C1829   1.406       .  A
C1828      H1837   1.082       .  S
C1829      C1830   1.431       .  A
C1829      S1833   1.814       .  S
C1830      C1831   1.417       .  A
C1831      C1832   1.401       .  A
C1831      H1838   1.077       .  S
C1832      S1834   1.809       .  S
S1833      H1836   1.406       .  S
S1834      H1835   1.408       .  S
C1839      C1863   1.577       .  S
C1839      C2106   1.411       .  A
C1839      C1844   1.432       .  A
C1840      C2105   1.412       .  A
C1840      H1849   1.075       .  S
C1841      C2108   1.429   1_554  A
C1841      S1845   1.811       .  S
C1842      C2107   1.427       .  A
C1842      C1843   1.415       .  A
C1843      H1850   1.072       .  S
C1844      S1846   1.812       .  S
S1845      H1848   1.406       .  S
S1846      H1847   1.407       .  S
C1851      C2118   1.412       .  A
C1851      C1856   1.423       .  A
C1852      C2117   1.411       .  A
C1852      C1853   1.413       .  A
C1852      H1861   1.078       .  S
C1853      C2120   1.435       .  A
C1853      S1857   1.809       .  S
C1854      C1863   1.581       .  S
C1854      C2119   1.433       .  A
C1854      C1855   1.415       .  A
C1855      C1856   1.399       .  A
C1855      H1862   1.071       .  S
C1856      S1858   1.813       .  S
S1857      H1860   1.406       .  S
S1858      H1859   1.408       .  S
C1863      C2096   1.568       .  S
C1864      C2045   1.570       .  S
C1864      C2069   1.602       .  S
C1864      C2108   1.576       .  S
C1865      C2024   1.593       .  S
C1865      C2036   1.574       .  S
C1865      C2072   1.581   1_556  S
C1866      C1973   1.604       .  S
C1866      C2000   1.593       .  S
C1867      C1937   1.560   1_554  S
C1867      C1961   1.597       .  S
C1867      C1997   1.593       .  S
C1868      C1925   1.583   1_554  S
C1868      C1964   1.583       .  S
C1868      C2117   1.574       .  S
O1869     Cr1887   2.007       .  S
O1869      C1877   1.265       .  A
O1870     Cr1887   1.972       .  S
O1870      C1871   1.259       .  A
C1871      O1872   1.266       .  A
C1871      C1913   1.479       .  S
O1872     Cr1888   2.010       .  S
O1873     Cr1888   1.976       .  S
O1873      C1874   1.258       .  A
C1874      O1875   1.263       .  A
C1874      C2060   1.477       .  S
O1875     Cr1889   2.010       .  S
O1876     Cr1889   1.976       .  S
O1876      C1877   1.263       .  A
C1877      C1976   1.487       .  S
O1878     Cr1887   1.972       .  S
O1878      C1886   1.260       .  A
O1879     Cr1887   2.009       .  S
O1879      C1880   1.266       .  A
C1880      O1881   1.259       .  A
C1880      C1928   1.484       .  S
O1881     Cr1888   1.978       .  S
O1882     Cr1888   2.012       .  S
O1882      C1883   1.267       .  A
C1883      O1884   1.262       .  A
C1883      C2048   1.476       .  S
O1884     Cr1889   1.969       .  S
O1885     Cr1889   2.012       .  S
O1885      C1886   1.264       .  A
C1886      C1985   1.494       .  S
Cr1887     O1890   1.772       .  S
Cr1888     O1890   1.774       .  S
Cr1889     O1890   1.773       .  S
O1891     Cr1909   1.973       .  S
O1891      C1899   1.261       .  A
O1892     Cr1909   2.020       .  S
O1892      C1893   1.266       .  A
C1893      O1894   1.261       .  A
C1893      C2081   1.478       .  S
O1894     Cr1910   1.979       .  S
O1895     Cr1910   2.003       .  S
O1895      C1896   1.264       .  A
C1896      O1897   1.260       .  A
C1896      C1940   1.490       .  S
O1897     Cr1911   1.975       .  S
O1898     Cr1911   2.034       .  S
O1898      C1899   1.272       .  A
C1899      C2021   1.507       .  S
O1900     Cr1909   2.016       .  S
O1900      C1908   1.269       .  A
O1901     Cr1909   1.968       .  S
O1901      C1902   1.260       .  A
C1902      O1903   1.267       .  A
C1902      C2093   1.494       .  S
O1903     Cr1910   2.017       .  S
O1904     Cr1910   1.973       .  S
O1904      C1905   1.260       .  A
C1905      O1906   1.270       .  A
C1905      C1949   1.479       .  S
O1906     Cr1911   2.033       .  S
O1907     Cr1911   1.974       .  S
O1907      C1908   1.257       .  A
C1908      C2012   1.500       .  S
Cr1909     O1912   1.769       .  S
Cr1910     O1912   1.763       .  S
Cr1911     O1912   1.773       .  S
C1913      C1914   1.393       .  A
C1913      C1918   1.402       .  A
C1914      C1915   1.402       .  A
C1914      H1923   1.085       .  S
C1915      C1916   1.449       .  A
C1915      S1919   1.806       .  S
C1916      C1917   1.424       .  A
C1917      C1918   1.400       .  A
C1917      H1924   1.080       .  S
C1918      S1920   1.806       .  S
S1919      H1922   1.386       .  S
S1920      H1921   1.407       .  S
C1925      C1926   1.423       .  A
C1925      C1930   1.433       .  A
C1926      C1927   1.400       .  A
C1926      H1935   1.077       .  S
C1927      C1928   1.408       .  A
C1927      S1931   1.804       .  S
C1928      C1929   1.399       .  A
C1929      C1930   1.405       .  A
C1929      H1936   1.083       .  S
C1930      S1932   1.802       .  S
S1931      H1934   1.407       .  S
C1937      C1938   1.417       .  A
C1937      C1942   1.434       .  A
C1938      C1939   1.394       .  A
C1938      H1947   1.075       .  S
C1939      C1940   1.414       .  A
C1939      S1943   1.811       .  S
C1940      C1941   1.406       .  A
C1941      C1942   1.407       .  A
C1941      H1948   1.082       .  S
S1943      H1946   1.408       .  S
S1944      H1945   1.406       .  S
C1949      C1950   1.389       .  A
C1949      C1954   1.408       .  A
C1950      C1951   1.402       .  A
C1950      H1959   1.084       .  S
C1951      C1952   1.451       .  A
C1952      C1953   1.423       .  A
C1953      C1954   1.405       .  A
C1953      H1960   1.084       .  S
C1954      S1956   1.805       .  S
S1955      H1958   1.409   1_556  S
S1956      H1957   1.401       .  S
C1962      C1963   1.401       .  A
C1963      S1967   1.815       .  S
C1964      C1965   1.410   1_554  A
C1965      C1966   1.409       .  A
C1965      H1972   1.078       .  S
S1967      H1970   1.408       .  S
S1968      H1969   1.408       .  S
C1973      C1974   1.416       .  A
C1973      C1978   1.456       .  A
C1974      C1975   1.399       .  A
C1974      H1983   1.061       .  S
C1975      C1976   1.406       .  A
C1975      S1979   1.804       .  S
C1976      C1977   1.394       .  A
C1977      C1978   1.403       .  A
C1977      H1984   1.083       .  S
C1978      S1980   1.826       .  S
S1979      H1982   1.408       .  S
C1985      C1986   1.401       .  A
C1985      C1990   1.418       .  A
C1986      C1987   1.397       .  A
C1986      H1995   1.082       .  S
C1987      C1988   1.434       .  A
C1988      C1989   1.416       .  A
C1989      C1990   1.407       .  A
C1989      H1996   1.079       .  S
C1990      S1992   1.808       .  S
S1991      H1994   1.405       .  S
S1992      H1993   1.407       .  S
C1997      C1998   1.419   1_554  A
C1998      H2007   1.067       .  S
C1999      S2003   1.812       .  S
C2000      C2001   1.411       .  A
C2001      H2008   1.056       .  S
C2002      S2004   1.813       .  S
S2003      H2006   1.406       .  S
S2004      H2005   1.406       .  S
C2009      C2010   1.423       .  A
C2009      C2014   1.445       .  A
C2010      C2011   1.401       .  A
C2010      H2019   1.081       .  S
C2011      C2012   1.414       .  A
C2011      S2015   1.810       .  S
C2012      C2013   1.401       .  A
C2013      C2014   1.406       .  A
C2013      H2020   1.084       .  S
C2014      S2016   1.806       .  S
S2015      H2018   1.407       .  S
S2016      H2017   1.388       .  S
C2021      C2022   1.405       .  A
C2021      C2026   1.413       .  A
C2022      C2023   1.406       .  A
C2022      H2031   1.082       .  S
C2023      C2024   1.432       .  A
C2023      S2027   1.802       .  S
C2024      C2025   1.425       .  A
C2025      C2026   1.410       .  A
C2025      H2032   1.076       .  S
C2026      S2028   1.808       .  S
S2028      H2029   1.407       .  S
C2033      C2034   1.426       .  A
C2034      C2035   1.399       .  A
C2034      H2043   1.077       .  S
C2035      C2036   1.422       .  A
C2035      S2039   1.813       .  S
C2037      C2038   1.417       .  A
C2037      H2044   1.082       .  S
C2038      S2040   1.818       .  S
S2039      H2042   1.408       .  S
S2040      H2041   1.396       .  S
C2045      C2046   1.423       .  A
C2045      C2050   1.442       .  A
C2046      C2047   1.407       .  A
C2046      H2055   1.082       .  S
C2047      C2048   1.407       .  A
C2047      S2051   1.806       .  S
C2048      C2049   1.393       .  A
C2049      C2050   1.399       .  A
C2049      H2056   1.083       .  S
C2050      S2052   1.816       .  S
S2051      H2054   1.407       .  S
S2052      H2053   1.407       .  S
C2057      C2058   1.425       .  A
C2057      C2062   1.446       .  A
C2058      C2059   1.400       .  A
C2058      H2067   1.083       .  S
C2059      C2060   1.404       .  A
C2059      S2063   1.804       .  S
C2060      C2061   1.393       .  A
C2061      C2062   1.403       .  A
C2061      H2068   1.084       .  S
C2062      S2064   1.810       .  S
S2063      H2066   1.406       .  S
C2069      C2074   1.438       .  A
C2070      C2071   1.399       .  A
C2070      H2079   1.070       .  S
C2073      C2074   1.413       .  A
C2074      S2076   1.810       .  S
S2075      H2078   1.407       .  S
S2076      H2077   1.406       .  S
C2081      C2082   1.392       .  A
C2081      C2086   1.406       .  A
C2082      C2083   1.402       .  A
C2082      H2091   1.084       .  S
C2083      C2084   1.446       .  A
C2083      S2087   1.812   1_556  S
C2084      C2085   1.419       .  A
C2085      C2086   1.401       .  A
C2085      H2092   1.083       .  S
C2086      S2088   1.800       .  S
S2088      H2089   1.404       .  S
C2093      C2094   1.405       .  A
C2093      C2098   1.415       .  A
C2094      C2095   1.402       .  A
C2094      H2103   1.082       .  S
C2095      C2096   1.430       .  A
C2095      S2099   1.812       .  S
C2096      C2097   1.418       .  A
C2097      C2098   1.402       .  A
C2097      H2104   1.076       .  S
C2098      S2100   1.811       .  S
S2099      H2102   1.407       .  S
S2100      H2101   1.407       .  S
C2105      C2110   1.432   1_554  A
C2106      H2115   1.075       .  S
C2107      S2111   1.810       .  S
C2108      C2109   1.416       .  A
C2109      H2116   1.073       .  S
C2110      S2112   1.813       .  S
S2111      H2114   1.408       .  S
S2112      H2113   1.408       .  S
C2117      C2122   1.424   1_554  A
C2118      C2119   1.413       .  A
C2118      H2127   1.079       .  S
C2119      S2123   1.810       .  S
C2120      C2121   1.414   1_554  A
C2121      C2122   1.400       .  A
C2121      H2128   1.072       .  S
C2122      S2124   1.813       .  S
S2123      H2126   1.406       .  S
S2124      H2125   1.408       .  S
