geometry optimzed in LAMMPS
_audit_creation_date              2020-11-30 
_audit_creation_method            'lammps2cif' 
_symmetry_space_group_name_H-M    'P1' 
_symmetry_Int_Tables_number       1 
_symmetry_cell_setting            triclinic 
loop_ 
_symmetry_equiv_pos_as_xyz 
  x,y,z 
_cell_length_a                    38.67250411 
_cell_length_b                    39.03575171439826 
_cell_length_c                    28.66472438578669 
_cell_angle_alpha                 89.27072046299843 
_cell_angle_beta                  90.58522781902197 
_cell_angle_gamma                 121.2956921805407 
loop_ 
_atom_site_label 
_atom_site_type_symbol 
_atom_site_fract_x 
_atom_site_fract_y 
_atom_site_fract_z 
_atom_site_charge 
C1          C  0.40549444  0.30490315  0.33879226    -0.01600
C2          C  0.07357633  0.39212767  0.32849306    -0.01600
C3          C  0.17070149  0.08067675  0.33989651    -0.01600
C4          C  0.06889020  0.15716543  0.99489468    -0.01600
C5          C  0.39825623  0.06844801  0.34015100    -0.01600
C6          C  0.31403827  0.38967247  0.32321788    -0.01600
Fe7        Fe  0.09416028  0.27627021  0.16219665     1.65800
Fe8        Fe  0.19118313  0.29651945  0.15946015     1.73200
Fe9        Fe  0.17355678  0.37320437  0.16265563     1.54400
O10         O  0.13772886  0.36968704  0.10787306    -0.80800
O11         O  0.23367695  0.34138774  0.20246511    -0.79100
O12         O  0.08259100  0.30824815  0.11186678    -0.83300
O13         O  0.08445778  0.30431414  0.21683553    -0.78100
O14         O  0.21854098  0.38614217  0.11374947    -0.79900
O15         O  0.16687913  0.26279737  0.21799053    -0.82600
C16         C  0.10030470  0.34026336  0.23014570     0.98100
C17         C  0.10296515  0.34307354  0.09345410     1.05600
O18         O  0.15273208  0.31522872  0.16114723    -1.11600
O19         O  0.15472174  0.24689930  0.11825854    -0.74100
O20         O  0.09541941  0.24235057  0.10862380    -0.77500
O21         O  0.13171950  0.36896524  0.21111934    -0.78200
C22         C  0.11961072  0.23053147  0.10031527     0.97000
O23         O  0.10064893  0.24033901  0.21180047    -0.76200
O24         O  0.21845786  0.32981644  0.10057832    -0.81400
C25         C  0.23371445  0.36827073  0.22694762     0.99600
C26         C  0.22979797  0.36596817  0.09069169     1.05600
O27         O  0.21052508  0.38140509  0.21850073    -0.77000
C28         C  0.13069052  0.24081301  0.23142039     1.03900
Fe29       Fe  0.38297152  0.18969830  0.17145557     1.65800
Fe30       Fe  0.30402274  0.09324528  0.17059061     1.73200
Fe31       Fe  0.28688195  0.16988415  0.16958643     1.52800
O32         O  0.32362627  0.21955109  0.21010195    -0.80800
O33         O  0.26738310  0.08445617  0.11350257    -0.79100
O34         O  0.37841047  0.21746246  0.22944490    -0.83300
O35         O  0.37843141  0.23027725  0.12706916    -0.78100
O36         O  0.25919914  0.13782021  0.22911034    -0.79900
O37         O  0.34770552  0.09961682  0.12401275    -0.82600
C38         C  0.34966934  0.22731685  0.10189411     0.98100
C39         C  0.35582105  0.23190029  0.23367685     1.05600
O40         O  0.32468869  0.15078025  0.17093148    -1.11600
O41         O  0.33906704  0.09591301  0.22622729    -0.74100
O42         O  0.39636742  0.15415564  0.21414990    -0.77500
O43         O  0.31278282  0.20215293  0.11024024    -0.78200
C44         C  0.37638882  0.11987231  0.23383537     0.97000
O45         O  0.39144287  0.16520884  0.11354690    -0.76200
O46         O  0.25892411  0.08096530  0.21872652    -0.81400
C47         C  0.24422095  0.09745529  0.10364960     0.99600
C48         C  0.24850069  0.10216969  0.24104668     1.05600
O49         O  0.24419119  0.12473373  0.12713869    -0.77000
C50         C  0.37738900  0.12893210  0.10300232     1.03900
C51         C  0.25718527  0.38549615  0.05063499    -0.15500
C52         C  0.28171671  0.37288630  0.03604832    -0.30700
H53         H  0.25855690  0.41147190  0.03458327     0.13500
H54         H  0.28170793  0.34923534  0.05651370     0.14100
C55         C  0.28812803  0.37424407  0.27900754    -0.15500
C56         C  0.26085214  0.38458998  0.26767803    -0.30700
H57         H  0.29138575  0.35397137  0.25633266     0.13500
H58         H  0.25784899  0.40527030  0.28986603     0.14100
C59         C  0.39793143  0.10720617  0.26589284    -0.15500
C60         C  0.37880690  0.08066432  0.30099324    -0.30700
H61         H  0.42993516  0.12034878  0.25979077     0.13500
H62         H  0.34615964  0.06704521  0.30341788     0.14100
C63         C  0.38978082  0.08453431  0.05537498    -0.15500
C64         C  0.39615518  0.12115522  0.06375587    -0.30700
H65         H  0.37049895  0.06103356  0.07984858     0.13500
H66         H  0.41351122  0.14593008  0.04019781     0.14100
C67         C  0.37927892  0.00478590  0.05053055    -0.12400
C68         C  0.38117148  0.02256725  0.33616609     0.09700
C69         C  0.36799953  0.00268500  0.29294429    -0.12400
C70         C  0.34730196  0.45932744  0.28135925    -0.12400
C71         C  0.34134294  0.43610117  0.32210405     0.09700
C72         C  0.34850263  0.45578134  0.04182894    -0.12400
H73         H  0.39113795  0.01896018  0.08384888     0.13700
H74         H  0.37168235  0.01922130  0.26094845     0.13700
H75         H  0.33587446  0.44546916  0.24782328     0.13700
H76         H  0.34214291  0.43831395  0.07364546     0.13700
C77         C  0.10680260  0.19611332  0.06903541    -0.15500
C78         C  0.07846958  0.18631279  0.03555793    -0.30700
H79         H  0.12283104  0.18036754  0.07286092     0.13500
H80         H  0.06360228  0.20352646  0.03372342     0.14100
C81         C  0.12455931  0.21656412  0.27324891    -0.15500
C82         C  0.08847646  0.18502469  0.28520294    -0.30700
H83         H  0.15024271  0.22708631  0.29659377     0.13500
H84         H  0.06354656  0.17478526  0.26050547     0.14100
C85         C  0.00089536  0.10072276  0.02842362    -0.12400
C86         C  0.03436265  0.14011066  0.34068500     0.09700
C87         C  0.01045010  0.15633138  0.32822596    -0.12400
C88         C  0.46727883  0.13507145  0.33559362    -0.12400
C89         C  0.44546337  0.09293642  0.34082369     0.09700
C90         C  0.47346645  0.08063629  0.01894770    -0.12400
H91         H  0.01740449  0.09550286  0.05549688     0.13700
H92         H  0.02430988  0.18737395  0.31727913     0.13700
H93         H  0.45263347  0.15173935  0.32930744     0.13700
H94         H  0.45924919  0.04980119  0.03045244     0.13700
C95         C  0.19050957  0.09142860  0.04948330    -0.15500
C96         C  0.21714210  0.08050516  0.06260325    -0.30700
H97         H  0.18785033  0.11245103  0.07143145     0.13500
H98         H  0.21931821  0.05833960  0.04262062     0.14100
C99         C  0.19980485  0.09824970  0.29841160    -0.15500
C100        C  0.22291403  0.08439322  0.28271959    -0.30700
H101        H  0.20068812  0.12277289  0.27883678     0.13500
H102        H  0.22113770  0.05819545  0.29867868     0.14100
C103        C  0.15633519  0.13676433  0.00183420    -0.12400
C104        C  0.14618670  0.10159807  0.33864265     0.09700
C105        C  0.10613177  0.08283878  0.32183075    -0.12400
C106        C  0.08609706  0.10404009  0.31839427    -0.12400
C107        C  0.09156468  0.13385901  0.99760434     0.09700
C108        C  0.13428792  0.15569727  0.99808571    -0.12400
H109        H  0.18903857  0.15533557  0.00322668     0.13700
H110        H  0.09054699  0.05232761  0.30943015     0.13700
H111        H  0.05667630  0.08931720  0.30176849     0.13700
H112        H  0.15114723  0.18808288  0.99680230     0.13700
C113        C  0.09197499  0.38507127  0.28472584    -0.15500
C114        C  0.08121513  0.34801146  0.27008126    -0.30700
H115        H  0.11585725  0.41088881  0.26615475     0.13500
H116        H  0.05734733  0.32210127  0.28853700     0.14100
C117        C  0.10138430  0.39138883  0.03846709    -0.15500
C118        C  0.08574269  0.35308064  0.05312676    -0.30700
H119        H  0.12718321  0.41503992  0.05723825     0.13500
H120        H  0.05926905  0.32887038  0.03604739     0.14100
C121        C  0.09221156  0.46226930  0.30105868    -0.12400
C122        C  0.09417289  0.43797386  0.33646204     0.09700
C123        C  0.10399928  0.46822102  0.04002288    -0.12400
C124        C  0.13151579  0.00618089  0.04625827    -0.12400
C125        C  0.14274557  0.03459330  0.33778727     0.09700
C126        C  0.13560340  0.01337514  0.29592599    -0.12400
H127        H  0.07549126  0.44882454  0.26923798     0.13700
H128        H  0.09207900  0.45095772  0.07189743     0.13700
H129        H  0.14171915  0.02011990  0.07997491     0.13700
H130        H  0.14598055  0.02889544  0.26281623     0.13700
C131        C  0.36710615  0.26490258  0.26613678    -0.15500
C132        C  0.39278353  0.27235674  0.30173519    -0.30700
H133        H  0.35365507  0.28291363  0.26004330     0.13500
H134        H  0.40610078  0.25379180  0.30534158     0.14100
C135        C  0.35824594  0.25235700  0.05991190    -0.15500
C136        C  0.39447958  0.28498472  0.04953640    -0.30700
H137        H  0.33385804  0.24064538  0.03481521     0.13500
H138        H  0.41875124  0.29364364  0.07469070     0.14100
C139        C  0.47133575  0.33931772  0.29092867    -0.12400
C140        C  0.45169669  0.33391274  0.33407734     0.09700
C141        C  0.47543546  0.35794006  0.37163797    -0.12400
C142        C  0.00709361  0.37676513  0.36329598    -0.12400
C143        C  0.02784341  0.37504579  0.32421933     0.09700
C144        C  0.00510646  0.35647412  0.28367791    -0.12400
H145        H  0.45452541  0.32516695  0.25944150     0.13700
H146        H  0.46153208  0.35816124  0.40411052     0.13700
H147        H  0.02358495  0.39262394  0.39432790     0.13700
H148        H  0.01950009  0.35717378  0.25128638     0.13700
C149        C  0.40085062  0.37223966  0.99574499    -0.12400
C150        C  0.38273277  0.32811195  0.33499148     0.09700
C151        C  0.34011000  0.30735963  0.33545073    -0.12400
C152        C  0.31909770  0.32719370  0.33014490    -0.12400
C153        C  0.33927900  0.36932214  0.32702770     0.09700
C154        C  0.37940405  0.39236567  0.99487754    -0.12400
H155        H  0.43345037  0.39060221  0.99545906     0.13700
H156        H  0.32209754  0.27522153  0.33661171     0.13700
H157        H  0.28645952  0.30894648  0.32778312     0.13700
H158        H  0.39664311  0.42478161  0.99426557     0.13700
C159        C  0.40450892  0.30242266  0.67519597    -0.01600
C160        C  0.07952008  0.39941522  0.65610194    -0.01600
C161        C  0.16847809  0.08113757  0.67108600    -0.01600
C162        C  0.08067946  0.16629968  0.33394198    -0.01600
C163        C  0.40353336  0.07391809  0.68027747    -0.01600
C164        C  0.31556414  0.38911984  0.67072219    -0.01600
Fe165      Fe  0.10786049  0.29064667  0.49047070     1.65800
Fe166      Fe  0.20228157  0.30677797  0.49892105     1.73200
Fe167      Fe  0.18921873  0.38539240  0.50005862     1.54400
O168        O  0.16103730  0.38547747  0.44035775    -0.80800
O169        O  0.24490153  0.35216313  0.54204610    -0.79100
O170        O  0.10110247  0.32824235  0.44191461    -0.83300
O171        O  0.09608694  0.31478831  0.54659941    -0.78100
O172        O  0.23846582  0.39808680  0.45763404    -0.79900
O173        O  0.17416303  0.27394773  0.55696651    -0.82600
C174        C  0.11113435  0.35037261  0.56047699     0.98100
C175        C  0.12624935  0.36240574  0.42376050     1.05600
O176        O  0.16615429  0.32755379  0.49662602    -1.11600
O177        O  0.16508529  0.25629052  0.45887689    -0.74100
O178        O  0.11366225  0.26195126  0.43463532    -0.77500
O179        O  0.14276127  0.37990549  0.54240034    -0.78200
C180        C  0.13324446  0.24422327  0.43462810     0.97000
O181        O  0.10907190  0.24912726  0.53769204    -0.76200
O182        O  0.23113961  0.33908834  0.43998825    -0.81400
C183        C  0.24378114  0.37782079  0.56791529     0.99600
C184        C  0.24646017  0.37640765  0.43234799     1.05600
O185        O  0.21982567  0.39005227  0.56017783    -0.77000
C186        C  0.13670039  0.24917854  0.56287658     1.03900
Fe187      Fe  0.38413049  0.18505396  0.50569779     1.65800
Fe188      Fe  0.30397818  0.08939197  0.50825616     1.73200
Fe189      Fe  0.28947993  0.16758843  0.50489324     1.52800
O190        O  0.32807367  0.21815370  0.54388281    -0.80800
O191        O  0.26831409  0.08045082  0.45051706    -0.79100
O192        O  0.38212335  0.21485252  0.56402606    -0.83300
O193        O  0.38027432  0.22632203  0.46194673    -0.78100
O194        O  0.26179556  0.13742719  0.56519778    -0.79900
O195        O  0.34699869  0.09311654  0.46225174    -0.82600
C196        C  0.35173109  0.22306813  0.43618865     0.98100
C197        C  0.36037209  0.23045007  0.56747514     1.05600
O198        O  0.32588712  0.14719762  0.50712906    -1.11600
O199        O  0.33849760  0.09307478  0.56472317    -0.74100
O200        O  0.39702391  0.14858868  0.54733628    -0.77500
O201        O  0.31489468  0.19772373  0.44424897    -0.78200
C202        C  0.37643495  0.11547360  0.56930005     0.97000
O203        O  0.38850954  0.15838552  0.44698145    -0.76200
O204        O  0.25857049  0.07910439  0.55493679    -0.81400
C205        C  0.24572664  0.09401617  0.44054079     0.99600
C206        C  0.24887603  0.10118412  0.57658812     1.05600
O207        O  0.24594860  0.12141558  0.46420173    -0.77000
C208        C  0.37400867  0.12172250  0.43765711     1.03900
C209        C  0.27500642  0.39568122  0.39293920    -0.15500
C210        C  0.28413332  0.37414727  0.36454196    -0.30700
H211        H  0.28771169  0.42750228  0.38722368     0.13500
H212        H  0.26715277  0.34199255  0.37020774     0.14100
C213        C  0.29278207  0.37858898  0.62401243    -0.15500
C214        C  0.27033648  0.39369560  0.60915782    -0.30700
H215        H  0.29420771  0.35709161  0.60161167     0.13500
H216        H  0.26990558  0.41704327  0.62867632     0.14100
C217        C  0.39780225  0.10223698  0.60042237    -0.15500
C218        C  0.38217416  0.08451485  0.64183384    -0.30700
H219        H  0.42712294  0.10827531  0.58917836     0.13500
H220        H  0.35143350  0.07704328  0.64928348     0.14100
C221        C  0.38323617  0.07677285  0.38559526    -0.15500
C222        C  0.38891922  0.11298625  0.39546530    -0.30700
H223        H  0.36575151  0.05260745  0.41024713     0.13500
H224        H  0.40334579  0.13742163  0.37081519     0.14100
C225        C  0.37882434  0.99903392  0.37533736    -0.12400
C226        C  0.38841739  0.02875233  0.67654217     0.09700
C227        C  0.37981408  0.00984035  0.63278136    -0.12400
C228        C  0.36705313  0.45861646  0.63711785    -0.12400
C229        C  0.34280682  0.43538560  0.67496869     0.09700
C230        C  0.36173197  0.45671984  0.36277289    -0.12400
H231        H  0.39140981  0.01285457  0.40865449     0.13700
H232        H  0.38665935  0.02699331  0.60071249     0.13700
H233        H  0.36864092  0.44411328  0.60595275     0.13700
H234        H  0.36047562  0.44023762  0.39403852     0.13700
C235        C  0.11806185  0.20755995  0.40693410    -0.15500
C236        C  0.09501517  0.20086716  0.36873928    -0.30700
H237        H  0.12624719  0.18620464  0.41863434     0.13500
H238        H  0.08622285  0.22261731  0.36058338     0.14100
C239        C  0.12636248  0.22057384  0.60177375    -0.15500
C240        C  0.08879817  0.19009953  0.61169833    -0.30700
H241        H  0.15089654  0.22678711  0.62567348     0.13500
H242        H  0.06424017  0.18334046  0.58754712     0.14100
C243        C  0.01404288  0.10095507  0.35960953    -0.12400
C244        C  0.03345126  0.14133856  0.66482819     0.09700
C245        C  0.00953181  0.15864398  0.65882851    -0.12400
C246        C  0.47202626  0.13751366  0.65983992    -0.12400
C247        C  0.45040577  0.09904744  0.68023813     0.09700
C248        C  0.46867887  0.07503320  0.35010059    -0.12400
H249        H  0.03041634  0.08863034  0.37636284     0.13700
H250        H  0.02356905  0.19053567  0.65231760     0.13700
H251        H  0.45718867  0.15301069  0.64781105     0.13700
H252        H  0.45471570  0.04341245  0.35728781     0.13700
C253        C  0.19540404  0.09213299  0.38543831    -0.15500
C254        C  0.21936070  0.07821794  0.39884384    -0.30700
H255        H  0.19299866  0.11233110  0.40906367     0.13500
H256        H  0.22098904  0.05615812  0.37793892     0.14100
C257        C  0.19948861  0.09915354  0.63162730    -0.15500
C258        C  0.22116007  0.08349618  0.61641668    -0.30700
H259        H  0.20321568  0.12554403  0.61351807     0.13500
H260        H  0.21634708  0.05560368  0.63102827     0.14100
C261        C  0.16602194  0.14296733  0.34782715    -0.12400
C262        C  0.14470816  0.10309879  0.66854091     0.09700
C263        C  0.10928846  0.08859680  0.64123880    -0.12400
C264        C  0.09020971  0.11073457  0.63598799    -0.12400
C265        C  0.10355688  0.14328612  0.33614577     0.09700
C266        C  0.14533789  0.16329617  0.34632794    -0.12400
H267        H  0.19808877  0.15995113  0.35580357     0.13700
H268        H  0.09661580  0.06059768  0.62279745     0.13700
H269        H  0.06384761  0.09903711  0.61355235     0.13700
H270        H  0.16285456  0.19507415  0.35295600     0.13700
C271        C  0.09873213  0.39289107  0.61292668    -0.15500
C272        C  0.09074206  0.35651266  0.59999036    -0.30700
H273        H  0.12167855  0.41855019  0.59333587     0.13500
H274        H  0.06814433  0.33017621  0.61906143     0.14100
C275        C  0.08000614  0.37005753  0.36950428    -0.15500
C276        C  0.11694514  0.37784194  0.38132147    -0.30700
H277        H  0.05434361  0.34779951  0.38983896     0.13500
H278        H  0.14265041  0.40066548  0.36150950     0.14100
C279        C  0.10216272  0.46875029  0.61995153    -0.12400
C280        C  0.09493686  0.44468460  0.66004160     0.09700
C281        C  0.11413583  0.45710099  0.37835138    -0.12400
C282        C  0.12337097  0.01223510  0.37839582    -0.12400
C283        C  0.13984503  0.03512579  0.66666116     0.09700
C284        C  0.13184858  0.01538797  0.62345673    -0.12400
H285        H  0.09151542  0.45524671  0.58602953     0.13700
H286        H  0.11403706  0.44011524  0.40842793     0.13700
H287        H  0.12534737  0.02726594  0.41067896     0.13700
H288        H  0.14129977  0.03232553  0.59109923     0.13700
C289        C  0.37219548  0.26456634  0.59897482    -0.15500
C290        C  0.39551019  0.27144077  0.63690159    -0.30700
H291        H  0.35943967  0.28301041  0.59140990     0.13500
H292        H  0.40806435  0.25241316  0.64265456     0.14100
C293        C  0.36054988  0.24819589  0.39428662    -0.15500
C294        C  0.39617686  0.28221146  0.38577731    -0.30700
H295        H  0.33697047  0.23601775  0.36809736     0.13500
H296        H  0.41979341  0.29132017  0.41190055     0.14100
C297        C  0.47045528  0.35189915  0.63395173    -0.12400
C298        C  0.45107821  0.33005872  0.67492208     0.09700
C299        C  0.47581852  0.33409887  0.71352551    -0.12400
C300        C  0.01026807  0.37460259  0.69402644    -0.12400
C301        C  0.03241605  0.37582216  0.65456093     0.09700
C302        C  0.00994858  0.35630315  0.61404371    -0.12400
H303        H  0.45264636  0.35016008  0.60366906     0.13700
H304        H  0.46386067  0.31856151  0.74615366     0.13700
H305        H  0.02600022  0.39018743  0.72546918     0.13700
H306        H  0.02481114  0.35831072  0.58154718     0.13700
C307        C  0.40313890  0.37036871  0.32972452    -0.12400
C308        C  0.38314999  0.32657053  0.66978146     0.09700
C309        C  0.34069381  0.30607604  0.66562113    -0.12400
C310        C  0.31998081  0.32643501  0.66592909    -0.12400
C311        C  0.34045757  0.36838952  0.67135192     0.09700
C312        C  0.38194767  0.39050947  0.32617601    -0.12400
H313        H  0.43570945  0.38864348  0.32790824     0.13700
H314        H  0.32307273  0.27382269  0.66245875     0.13700
H315        H  0.28734601  0.30910158  0.66220313     0.13700
H316        H  0.39952519  0.42270703  0.32188410     0.13700
C317        C  0.40341775  0.30650760  0.00174520    -0.01600
C318        C  0.08514710  0.40356523  0.99647345    -0.01600
C319        C  0.16366502  0.07560267  0.00541475    -0.01600
C320        C  0.07989944  0.16866876  0.65915614    -0.01600
C321        C  0.40307062  0.07382265  0.01049980    -0.01600
C322        C  0.31081574  0.39064036  0.99436500    -0.01600
Fe323      Fe  0.09134554  0.27957671  0.83124439     1.65800
Fe324      Fe  0.18687233  0.29650836  0.83348696     1.73200
Fe325      Fe  0.17213826  0.37513663  0.82700198     1.54400
O326        O  0.13542833  0.37031060  0.77110840    -0.80800
O327        O  0.23011211  0.34254972  0.87452079    -0.79100
O328        O  0.07841457  0.31193880  0.78336371    -0.83300
O329        O  0.08429590  0.30826636  0.88671529    -0.78100
O330        O  0.21607532  0.38373870  0.77884791    -0.79900
O331        O  0.16083045  0.26685285  0.89445411    -0.82600
C332        C  0.10097929  0.34495099  0.89732201     0.98100
C333        C  0.09862628  0.34497569  0.76142505     1.05600
O334        O  0.15015692  0.31724059  0.82997834    -1.11600
O335        O  0.14844394  0.24522357  0.79453653    -0.74100
O336        O  0.09352547  0.24759247  0.77647354    -0.77500
O337        O  0.13102781  0.37278097  0.87510362    -0.78200
C338        C  0.11522413  0.23224534  0.77253375     0.97000
O339        O  0.09527566  0.24124646  0.87917449    -0.76200
O340        O  0.21678337  0.32688045  0.77340383    -0.81400
C341        C  0.23228266  0.37219067  0.89510759     0.99600
C342        C  0.22829353  0.36247768  0.76004423     1.05600
O343        O  0.21041361  0.38628318  0.88333363    -0.77000
C344        C  0.12384542  0.24371040  0.90410241     1.03900
Fe345      Fe  0.37908887  0.18639631  0.84085212     1.65800
Fe346      Fe  0.30201267  0.08946645  0.84035388     1.73200
Fe347      Fe  0.28278871  0.16444169  0.83764641     1.52800
O348        O  0.31970033  0.21609001  0.87601156    -0.80800
O349        O  0.26638539  0.08011955  0.78185115    -0.79100
O350        O  0.37333120  0.21329126  0.89889777    -0.83300
O351        O  0.37287129  0.22602095  0.79753492    -0.78100
O352        O  0.25533612  0.13328050  0.89797444    -0.79900
O353        O  0.34729822  0.09692651  0.79522559    -0.82600
C354        C  0.34492440  0.22006472  0.76902309     0.98100
C355        C  0.35152602  0.22880090  0.90059469     1.05600
O356        O  0.32130875  0.14647822  0.84045881    -1.11600
O357        O  0.33703158  0.09376808  0.89715565    -0.74100
O358        O  0.39391717  0.15183403  0.88245524    -0.77500
O359        O  0.30803287  0.19417594  0.77623543    -0.78200
C360        C  0.37465889  0.11800890  0.90304976     0.97000
O361        O  0.38847662  0.16270978  0.78276075    -0.76200
O362        O  0.25511652  0.07641472  0.88674940    -0.81400
C363        C  0.24201480  0.09184090  0.77285467     0.99600
C364        C  0.24352395  0.09699902  0.90858943     1.05600
O365        O  0.24016718  0.11731014  0.79795003    -0.77000
C366        C  0.37628872  0.12652559  0.77360258     1.03900
C367        C  0.25706972  0.38066797  0.72090649    -0.15500
C368        C  0.28418684  0.37003568  0.71043442    -0.30700
H369        H  0.25818255  0.40583836  0.70315165     0.13500
H370        H  0.28408606  0.34685080  0.73198857     0.14100
C371        C  0.28539734  0.37763729  0.94917711    -0.15500
C372        C  0.26011055  0.39006247  0.93556243    -0.30700
H373        H  0.28748357  0.35647550  0.92684944     0.13500
H374        H  0.25868371  0.41276829  0.95535745     0.14100
C375        C  0.39776547  0.10665077  0.93401183    -0.15500
C376        C  0.38105264  0.08324532  0.97188823    -0.30700
H377        H  0.42915119  0.11869128  0.92518906     0.13500
H378        H  0.34870630  0.07027742  0.97697622     0.14100
C379        C  0.38867944  0.08231946  0.72533267    -0.15500
C380        C  0.39664471  0.11921275  0.73557810    -0.30700
H381        H  0.36734559  0.05758663  0.74729687     0.13500
H382        H  0.41712871  0.14462247  0.71388301     0.14100
C383        C  0.38279812  0.00477725  0.71647170    -0.12400
C384        C  0.38566807  0.02786956  0.00945686     0.09700
C385        C  0.37494294  0.00721177  0.96677453    -0.12400
C386        C  0.35049428  0.46151480  0.95801706    -0.12400
C387        C  0.33717795  0.43682162  0.99806523     0.09700
C388        C  0.34374238  0.45598365  0.71545689    -0.12400
H389        H  0.39207212  0.01779894  0.75076865     0.13700
H390        H  0.38226633  0.02339922  0.93390278     0.13700
H391        H  0.34563482  0.44866014  0.92360198     0.13700
H392        H  0.32836125  0.44008094  0.74694897     0.13700
C393        C  0.10101787  0.19787857  0.74115750    -0.15500
C394        C  0.09385472  0.20162682  0.69606915    -0.30700
H395        H  0.09868004  0.17054691  0.75428273     0.13500
H396        H  0.09845929  0.23049324  0.68487048     0.14100
C397        C  0.11386447  0.22019642  0.94723875    -0.15500
C398        C  0.08341158  0.18170243  0.94946337    -0.30700
H399        H  0.13205669  0.23530155  0.97774772     0.13500
H400        H  0.06946316  0.16658064  0.91688780     0.14100
C401        C  0.01308779  0.10010102  0.67665747    -0.12400
C402        C  0.02193690  0.13044019  0.99403887     0.09700
C403        C  0.99824613  0.13895315  0.96357623    -0.12400
C404        C  0.47214496  0.13964794  0.99734380    -0.12400
C405        C  0.45024763  0.09813333  0.00769292     0.09700
C406        C  0.47351263  0.08649941  0.70557114    -0.12400
H407        H  0.02934467  0.08567630  0.68719696     0.13700
H408        H  0.01184439  0.16434077  0.93990176     0.13700
H409        H  0.45724362  0.15597580  0.98992692     0.13700
H410        H  0.45926265  0.06017944  0.72763873     0.13700
C411        C  0.19171810  0.09044782  0.71781056    -0.15500
C412        C  0.21612761  0.07672105  0.73062739    -0.30700
H413        H  0.18776272  0.10863854  0.74296450     0.13500
H414        H  0.21905292  0.05602158  0.70865810     0.14100
C415        C  0.19146575  0.09119474  0.96246675    -0.15500
C416        C  0.21538425  0.07776911  0.94821435    -0.30700
H417        H  0.19175718  0.11470125  0.94139129     0.13500
H418        H  0.21355535  0.05175713  0.96478610     0.14100
C419        C  0.16217533  0.14251449  0.68566250    -0.12400
C420        C  0.13711104  0.09467958  0.00317999     0.09700
C421        C  0.09440016  0.07239586  0.00053017    -0.12400
C422        C  0.07220354  0.09158828  0.99667073    -0.12400
C423        C  0.10358235  0.14639828  0.66109352     0.09700
C424        C  0.14171562  0.16319768  0.68307226    -0.12400
H425        H  0.19222517  0.15803087  0.70078123     0.13700
H426        H  0.07759797  0.04001195  0.00075642     0.13700
H427        H  0.03994718  0.07265996  0.99199780     0.13700
H428        H  0.15689322  0.19312747  0.69716477     0.13700
C429        C  0.10106281  0.39259331  0.95373275    -0.15500
C430        C  0.08431817  0.35499462  0.93745881    -0.30700
H431        H  0.12882917  0.41586928  0.93754483     0.13500
H432        H  0.05746974  0.33072456  0.95403350     0.14100
C433        C  0.09740034  0.38731784  0.69688266    -0.15500
C434        C  0.07783706  0.35380913  0.72336488    -0.30700
H435        H  0.12973092  0.40714275  0.70276681     0.13500
H436        H  0.04617284  0.33197155  0.71677310     0.14100
C437        C  0.11343055  0.47267314  0.95682137    -0.12400
C438        C  0.10189383  0.44904475  0.99775483     0.09700
C439        C  0.10538662  0.46424597  0.70343581    -0.12400
C440        C  0.12251048  0.01107006  0.70670426    -0.12400
C441        C  0.13765078  0.02918090  0.00540273     0.09700
C442        C  0.11900638  0.00831044  0.96400506    -0.12400
H443        H  0.10811479  0.45927832  0.92269199     0.13700
H444        H  0.09762925  0.44723410  0.73574137     0.13700
H445        H  0.12502446  0.02453991  0.74031176     0.13700
H446        H  0.12080079  0.02461572  0.93237944     0.13700
C447        C  0.36359428  0.26357156  0.93074653    -0.15500
C448        C  0.38986035  0.27259615  0.96618128    -0.30700
H449        H  0.35053937  0.28169100  0.92289694     0.13500
H450        H  0.40295352  0.25394489  0.97118006     0.14100
C451        C  0.35603248  0.24254581  0.72497877    -0.15500
C452        C  0.38897289  0.27962637  0.72150376    -0.30700
H453        H  0.33788656  0.22719496  0.69452168     0.13500
H454        H  0.40142002  0.29555022  0.75393394     0.14100
C455        C  0.46990088  0.33730543  0.95429884    -0.12400
C456        C  0.44993170  0.33496122  0.99637833     0.09700
C457        C  0.47413907  0.35946633  0.03340707    -0.12400
C458        C  0.01697957  0.37081139  0.03878267    -0.12400
C459        C  0.03881565  0.38252636  0.99669168     0.09700
C460        C  0.01690283  0.37466209  0.95467774    -0.12400
H461        H  0.45311841  0.32202293  0.92322229     0.13700
H462        H  0.46037169  0.36129698  0.06522428     0.13700
H463        H  0.03240890  0.37910065  0.07214212     0.13700
H464        H  0.03243364  0.38597458  0.92175133     0.13700
C465        C  0.40372427  0.36855629  0.67632095    -0.12400
C466        C  0.38057668  0.32977454  0.99760497     0.09700
C467        C  0.33788475  0.30892288  0.99670088    -0.12400
C468        C  0.31672619  0.32876930  0.99424609    -0.12400
C469        C  0.33670574  0.37087231  0.99457955     0.09700
C470        C  0.38283022  0.38902268  0.67718254    -0.12400
H471        H  0.43596606  0.38595420  0.68264209     0.13700
H472        H  0.31984368  0.27677813  0.99543922     0.13700
H473        H  0.28398446  0.31080868  0.99259862     0.13700
H474        H  0.40026631  0.42094718  0.68319314     0.13700
C475        C  0.41030743  0.80860491  0.34186379    -0.01600
C476        C  0.08568286  0.90411970  0.34035803    -0.01600
C477        C  0.16505204  0.57020025  0.34436172    -0.01600
C478        C  0.08108332  0.66786476  0.99984019    -0.01600
C479        C  0.39845138  0.56702319  0.32956689    -0.01600
C480        C  0.31616907  0.89063958  0.32941086    -0.01600
Fe481      Fe  0.08956607  0.77862480  0.17641511     1.65800
Fe482      Fe  0.18624715  0.79585656  0.16836155     1.73200
Fe483      Fe  0.17152522  0.87492165  0.17044894     1.54400
O484        O  0.13138216  0.86991948  0.11882000    -0.80800
O485        O  0.22700085  0.83672488  0.21622806    -0.79100
O486        O  0.07760281  0.80758584  0.12283541    -0.83300
O487        O  0.08152111  0.81060203  0.22638039    -0.78100
O488        O  0.21273186  0.88627456  0.11795489    -0.79900
O489        O  0.15835235  0.75756486  0.22424821    -0.82600
C490        C  0.10092666  0.84619750  0.24063098     0.98100
C491        C  0.09674249  0.84245601  0.10447818     1.05600
O492        O  0.14908607  0.81638886  0.17144640    -1.11600
O493        O  0.14983556  0.75085483  0.12129895    -0.74100
O494        O  0.08731880  0.73938152  0.12878680    -0.77500
O495        O  0.13423384  0.87286929  0.22292764    -0.78200
C496        C  0.11217171  0.73129334  0.11195544     0.97000
O497        O  0.09537690  0.74565904  0.22983225    -0.76200
O498        O  0.21947121  0.83312792  0.11278117    -0.81400
C499        C  0.23271407  0.86859598  0.23495634     0.99600
C500        C  0.22810540  0.86793566  0.09937885     1.05600
O501        O  0.21361122  0.88553081  0.22223992    -0.77000
C502        C  0.12395480  0.74092083  0.24373442     1.03900
Fe503      Fe  0.37938376  0.68908471  0.16756021     1.65800
Fe504      Fe  0.29277950  0.59800805  0.17509631     1.73200
Fe505      Fe  0.29049686  0.68291260  0.17561537     1.52800
O506        O  0.33729160  0.73517631  0.20405907    -0.80800
O507        O  0.25256619  0.59281348  0.12339625    -0.79100
O508        O  0.38343899  0.72117660  0.22706560    -0.83300
O509        O  0.37609736  0.73073800  0.12342418    -0.78100
O510        O  0.27115863  0.66006321  0.24107172    -0.79900
O511        O  0.32973550  0.59580116  0.12234388    -0.82600
C512        C  0.34716305  0.72742242  0.09802911     0.98100
C513        C  0.36680473  0.74189515  0.22994495     1.05600
O514        O  0.32101712  0.65611589  0.17320303    -1.11600
O515        O  0.33037080  0.59651630  0.22581253    -0.74100
O516        O  0.39007422  0.65018590  0.20727352    -0.77500
O517        O  0.31024277  0.70517498  0.10960365    -0.78200
C518        C  0.36875931  0.61644255  0.22780072     0.97000
O519        O  0.37871050  0.65958619  0.10886004    -0.76200
O520        O  0.25431945  0.59635245  0.22888847    -0.81400
C521        C  0.22960016  0.60700169  0.12347872     0.99600
C522        C  0.25317171  0.62331628  0.25306327     1.05600
O523        O  0.23690200  0.63638891  0.14851072    -0.77000
C524        C  0.36036217  0.62258300  0.09920014     1.03900
C525        C  0.25698704  0.88843339  0.06032514    -0.15500
C526        C  0.28517260  0.87951600  0.04925711    -0.30700
H527        H  0.25572143  0.91199977  0.04149957     0.13500
H528        H  0.28724492  0.85808858  0.07193262     0.14100
C529        C  0.28844754  0.87525220  0.28601271    -0.15500
C530        C  0.26171155  0.88639122  0.27434108    -0.30700
H531        H  0.29005839  0.85383400  0.26366060     0.13500
H532        H  0.26094293  0.90939249  0.29425654     0.14100
C533        C  0.39018234  0.59979566  0.25380267    -0.15500
C534        C  0.37553842  0.57832822  0.29352203    -0.30700
H535        H  0.41929730  0.60697768  0.24038988     0.13500
H536        H  0.34460856  0.56920660  0.30259863     0.14100
C537        C  0.37195949  0.57587722  0.05161556    -0.15500
C538        C  0.37684190  0.61216646  0.05899057    -0.30700
H539        H  0.35256675  0.55206708  0.07572856     0.13500
H540        H  0.39535143  0.63651955  0.03509259     0.14100
C541        C  0.36646232  0.49733246  0.04541511    -0.12400
C542        C  0.38248752  0.52154080  0.32570137     0.09700
C543        C  0.36763264  0.50119145  0.28312944    -0.12400
C544        C  0.34909993  0.96095452  0.29007258    -0.12400
C545        C  0.34246798  0.93716005  0.33029478     0.09700
C546        C  0.35669145  0.96284152  0.04956706    -0.12400
H547        H  0.37408034  0.51019073  0.07990266     0.13700
H548        H  0.37047734  0.51742592  0.25112253     0.13700
H549        H  0.33918453  0.94746797  0.25607912     0.13700
H550        H  0.35114309  0.94636909  0.08204762     0.13700
C551        C  0.09559500  0.69689855  0.08079655    -0.15500
C552        C  0.09795973  0.70240873  0.03463658    -0.30700
H553        H  0.08017593  0.66684183  0.09567125     0.13500
H554        H  0.11241089  0.73317741  0.02173867     0.14100
C555        C  0.11841977  0.71676618  0.28590687    -0.15500
C556        C  0.08352418  0.68250752  0.29645864    -0.30700
H557        H  0.14385537  0.72912736  0.30975336     0.13500
H558        H  0.05853057  0.67325872  0.27216603     0.14100
C559        C  0.01378679  0.59933874  0.01642435    -0.12400
C560        C  0.03016668  0.63002999  0.34864509     0.09700
C561        C  0.00678309  0.60510265  0.31152847    -0.12400
C562        C  0.46725416  0.63156447  0.30983567    -0.12400
C563        C  0.44570929  0.59233241  0.32855015     0.09700
C564        C  0.45990648  0.57660888  0.02949131    -0.12400
H565        H  0.02996640  0.58393659  0.02171489     0.13700
H566        H  0.02123284  0.60391368  0.27994544     0.13700
H567        H  0.45234757  0.64706020  0.29829961     0.13700
H568        H  0.44541984  0.54752273  0.04623226     0.13700
C569        C  0.20094772  0.59064656  0.04575805    -0.15500
C570        C  0.19456642  0.59087988  0.09157048    -0.30700
H571        H  0.23210894  0.60085395  0.03642101     0.13500
H572        H  0.16585398  0.58556834  0.10434356     0.14100
C573        C  0.19202988  0.58079547  0.30052666    -0.15500
C574        C  0.23008751  0.61252132  0.29695082    -0.30700
H575        H  0.17934551  0.56276748  0.26943462     0.13500
H576        H  0.24340006  0.63370724  0.32534499     0.14100
C577        C  0.15750807  0.63517435  0.03592703    -0.12400
C578        C  0.14071799  0.59170233  0.34138003     0.09700
C579        C  0.09914971  0.57240408  0.35203057    -0.12400
C580        C  0.07894271  0.59368157  0.35293653    -0.12400
C581        C  0.10391082  0.64464317  0.00334975     0.09700
C582        C  0.13723930  0.65616814  0.03379113    -0.12400
H583        H  0.18395499  0.64712865  0.05808968     0.13700
H584        H  0.08202848  0.54091077  0.36123270     0.13700
H585        H  0.04736400  0.57682345  0.36246765     0.13700
H586        H  0.14953157  0.68256658  0.05510052     0.13700
C587        C  0.10244601  0.89234712  0.29946931    -0.15500
C588        C  0.08314614  0.85619135  0.27934643    -0.30700
H589        H  0.13351217  0.91350616  0.28912176     0.13500
H590        H  0.05351380  0.83305145  0.29167714     0.14100
C591        C  0.09858146  0.88501111  0.03870847    -0.15500
C592        C  0.07753138  0.85143938  0.06491269    -0.30700
H593        H  0.13094761  0.90383611  0.04518160     0.13500
H594        H  0.04604535  0.82987391  0.05703108     0.14100
C595        C  0.11575375  0.97164672  0.29614159    -0.12400
C596        C  0.10221303  0.94952744  0.33826359     0.09700
C597        C  0.11277421  0.96456390  0.04447921    -0.12400
C598        C  0.12328403  0.51003975  0.04227900    -0.12400
C599        C  0.13679464  0.52362509  0.34489832     0.09700
C600        C  0.11257583  0.50402782  0.30541653    -0.12400
H601        H  0.11180978  0.95694230  0.26308786     0.13700
H602        H  0.10996170  0.94870129  0.07678605     0.13700
H603        H  0.12518757  0.52319559  0.07574426     0.13700
H604        H  0.11060272  0.52131750  0.27680120     0.13700
C605        C  0.38072724  0.77515016  0.26321950    -0.15500
C606        C  0.40104898  0.77812134  0.30269583    -0.30700
H607        H  0.37089512  0.79613480  0.25613370     0.13500
H608        H  0.41176536  0.75750536  0.30790617     0.14100
C609        C  0.35603253  0.75026852  0.05387879    -0.15500
C610        C  0.39273868  0.78225381  0.04340728    -0.30700
H611        H  0.33125113  0.73948941  0.02937798     0.13500
H612        H  0.41709185  0.78916285  0.06783851     0.14100
C613        C  0.47551395  0.85692524  0.29835878    -0.12400
C614        C  0.45671822  0.83703388  0.34052956     0.09700
C615        C  0.48197172  0.84334899  0.37937159    -0.12400
C616        C  0.01636684  0.86789475  0.38118712    -0.12400
C617        C  0.03917067  0.88261787  0.33996565     0.09700
C618        C  0.01811218  0.87798076  0.29784402    -0.12400
H619        H  0.45733710  0.85397176  0.26796026     0.13700
H620        H  0.47032744  0.83021627  0.41317786     0.13700
H621        H  0.03102119  0.87363314  0.41494798     0.13700
H622        H  0.03448215  0.89116281  0.26577013     0.13700
C623        C  0.40229190  0.87609678  0.00374837    -0.12400
C624        C  0.38753945  0.83150919  0.33617767     0.09700
C625        C  0.34492354  0.80958263  0.33438211    -0.12400
C626        C  0.32295970  0.82877439  0.33077775    -0.12400
C627        C  0.34234241  0.87101520  0.33013626     0.09700
C628        C  0.38164141  0.89688116  0.00576783    -0.12400
H629        H  0.43486308  0.89392059  0.00152043     0.13700
H630        H  0.32840681  0.77713398  0.33558421     0.13700
H631        H  0.29025062  0.81034777  0.32942106     0.13700
H632        H  0.39943873  0.92927762  0.00532508     0.13700
C633        C  0.40235393  0.80415681  0.66672490    -0.01600
C634        C  0.08721039  0.90476639  0.66238468    -0.01600
C635        C  0.17328416  0.57603652  0.66721682    -0.01600
C636        C  0.07660958  0.65922989  0.34286110    -0.01600
C637        C  0.40345522  0.56702881  0.67353485    -0.01600
C638        C  0.32094432  0.89806709  0.66851646    -0.01600
Fe639      Fe  0.10614918  0.78195579  0.50410843     1.65800
Fe640      Fe  0.20394162  0.80438075  0.50293195     1.73200
Fe641      Fe  0.18352072  0.87992755  0.50026221     1.54400
O642        O  0.14582063  0.87387913  0.44633832    -0.80800
O643        O  0.24338251  0.84951160  0.54751695    -0.79100
O644        O  0.09188899  0.81218455  0.45393753    -0.83300
O645        O  0.09617116  0.81032196  0.55841873    -0.78100
O646        O  0.22757365  0.89240486  0.45040171    -0.79900
O647        O  0.17923244  0.76876416  0.56079265    -0.82600
C648        C  0.11138504  0.84678722  0.56956225     0.98100
C649        C  0.11048386  0.84667959  0.43451606     1.05600
O650        O  0.16441391  0.82202676  0.50230749    -1.11600
O651        O  0.16985152  0.75536968  0.45997696    -0.74100
O652        O  0.10938238  0.74862736  0.45084360    -0.77500
O653        O  0.14195785  0.87524115  0.54894746    -0.78200
C654        C  0.13482339  0.73837964  0.44169514     0.97000
O655        O  0.11336837  0.74654667  0.55373319    -0.76200
O656        O  0.23241734  0.83809921  0.44471601    -0.81400
C657        C  0.24443505  0.87881840  0.56774016     0.99600
C658        C  0.24093059  0.87256564  0.43067975     1.05600
O659        O  0.22250314  0.89251820  0.55526239    -0.77000
C660        C  0.14284446  0.74585328  0.57312728     1.03900
Fe661      Fe  0.39065187  0.68009953  0.49915300     1.65800
Fe662      Fe  0.30853599  0.58676198  0.50139930     1.73200
Fe663      Fe  0.29756477  0.66734960  0.50670192     1.52800
O664        O  0.33876195  0.71253299  0.55394831    -0.80800
O665        O  0.27171361  0.58060814  0.44615370    -0.79100
O666        O  0.39186846  0.70459772  0.56141932    -0.83300
O667        O  0.38885270  0.72575703  0.46212061    -0.78100
O668        O  0.26630545  0.63262386  0.56313232    -0.79900
O669        O  0.35115929  0.59161221  0.45324088    -0.82600
C670        C  0.36050374  0.72425366  0.43774092     0.98100
C671        C  0.37136667  0.71936772  0.57477082     1.05600
O672        O  0.33188063  0.64451591  0.50300901    -1.11600
O673        O  0.34368297  0.58848079  0.55649206    -0.74100
O674        O  0.40300590  0.64054782  0.53465737    -0.77500
O675        O  0.32376044  0.70149704  0.44819416    -0.78200
C676        C  0.38193169  0.60923552  0.55937877     0.97000
O677        O  0.39173422  0.65677083  0.43704912    -0.76200
O678        O  0.26301045  0.57485600  0.54892563    -0.81400
C679        C  0.24999902  0.59556860  0.43781270     0.99600
C680        C  0.25174326  0.59552118  0.57089525     1.05600
O681        O  0.25337463  0.62503252  0.46081491    -0.77000
C682        C  0.37795908  0.62030655  0.42827991     1.03900
C683        C  0.26707491  0.89016171  0.38919791    -0.15500
C684        C  0.28908726  0.87512076  0.37289745    -0.30700
H685        H  0.26897257  0.91624342  0.37271470     0.13500
H686        H  0.28855848  0.85108304  0.39306867     0.14100
C687        C  0.29598508  0.88463633  0.62329480    -0.15500
C688        C  0.27097345  0.89686276  0.60879081    -0.30700
H689        H  0.29850747  0.86356215  0.60125006     0.13500
H690        H  0.26887276  0.91939670  0.62811984     0.14100
C691        C  0.40322427  0.59768824  0.59318170    -0.15500
C692        C  0.38382321  0.57341353  0.62985180    -0.30700
H693        H  0.43565680  0.61209351  0.58929550     0.13500
H694        H  0.35099415  0.55859529  0.63083300     0.14100
C695        C  0.38532152  0.57505754  0.37603881    -0.15500
C696        C  0.39428350  0.61200698  0.38721306    -0.30700
H697        H  0.36541296  0.55039152  0.39903711     0.13500
H698        H  0.41326563  0.63718184  0.36442157     0.14100
C699        C  0.38079797  0.49834833  0.36499485    -0.12400
C700        C  0.38540373  0.52111931  0.67680235     0.09700
C701        C  0.38811303  0.50060116  0.63814225    -0.12400
C702        C  0.36029319  0.96816744  0.62964070    -0.12400
C703        C  0.34926283  0.94398896  0.67019132     0.09700
C704        C  0.36002205  0.95730547  0.37239641    -0.12400
H705        H  0.39287552  0.51199470  0.39848784     0.13700
H706        H  0.40526346  0.51723300  0.60769832     0.13700
H707        H  0.35287271  0.95499204  0.59529001     0.13700
H708        H  0.35796201  0.94049815  0.40366857     0.13700
C709        C  0.12330954  0.70488303  0.40905976    -0.15500
C710        C  0.09097848  0.69155790  0.38063919    -0.30700
H711        H  0.14216019  0.69193229  0.40833176     0.13500
H712        H  0.07421077  0.70691044  0.38183708     0.14100
C713        C  0.13515663  0.71786792  0.61231836    -0.15500
C714        C  0.09745201  0.69042889  0.62575030    -0.30700
H715        H  0.16102488  0.72031189  0.63048419     0.13500
H716        H  0.07289478  0.68658104  0.60324023     0.14100
C717        C  0.00951088  0.62676775  0.39053940    -0.12400
C718        C  0.04009626  0.63908111  0.67207787     0.09700
C719        C  0.01824056  0.65869147  0.66859430    -0.12400
C720        C  0.47094145  0.63338945  0.66744443    -0.12400
C721        C  0.45028892  0.59131475  0.67227291     0.09700
C722        C  0.46917658  0.58029529  0.35430296    -0.12400
H723        H  0.02581410  0.64211624  0.42181510     0.13700
H724        H  0.03384771  0.69103025  0.66486939     0.13700
H725        H  0.45420374  0.64860541  0.66526776     0.13700
H726        H  0.45539823  0.55325952  0.37490640     0.13700
C727        C  0.19185903  0.58614780  0.38854778    -0.15500
C728        C  0.22060576  0.57753208  0.39883055    -0.30700
H729        H  0.18908403  0.60686022  0.41096552     0.13500
H730        H  0.22324296  0.55658634  0.37671944     0.14100
C731        C  0.19838556  0.59057086  0.62227092    -0.15500
C732        C  0.22102803  0.57561194  0.60766817    -0.30700
H733        H  0.20062502  0.61604834  0.60349535     0.13500
H734        H  0.21808543  0.54919053  0.62468142     0.14100
C735        C  0.16103366  0.63332179  0.33274028    -0.12400
C736        C  0.15033949  0.59885119  0.67059096     0.09700
C737        C  0.12220029  0.59381312  0.63539561    -0.12400
C738        C  0.10232960  0.61529785  0.63571610    -0.12400
C739        C  0.09912858  0.63541293  0.34300349     0.09700
C740        C  0.14084900  0.65442140  0.33315052    -0.12400
H741        H  0.19321993  0.65027497  0.32652566     0.13700
H742        H  0.11639668  0.57415105  0.60637347     0.13700
H743        H  0.08201186  0.61132875  0.60720153     0.13700
H744        H  0.15911427  0.68614665  0.32715999     0.13700
C745        C  0.10410551  0.89403051  0.62012659    -0.15500
C746        C  0.09261369  0.85608991  0.60845698    -0.30700
H747        H  0.12864355  0.91812012  0.60036267     0.13500
H748        H  0.06841332  0.83109252  0.62759075     0.14100
C749        C  0.10239482  0.89368186  0.38345479    -0.15500
C750        C  0.09052493  0.85556880  0.39602262    -0.30700
H751        H  0.12626068  0.91809086  0.40357215     0.13500
H752        H  0.06575968  0.83058355  0.37763118     0.14100
C753        C  0.11284555  0.97358794  0.62144305    -0.12400
C754        C  0.10222561  0.95011520  0.66266899     0.09700
C755        C  0.10339171  0.97035071  0.37861665    -0.12400
C756        C  0.13506935  0.49898628  0.38242819    -0.12400
C757        C  0.14216620  0.53015517  0.66531634     0.09700
C758        C  0.12643797  0.51052993  0.62230818    -0.12400
H759        H  0.10743737  0.96003671  0.58741309     0.13700
H760        H  0.09046267  0.95431598  0.41098770     0.13700
H761        H  0.15013438  0.51164065  0.41517778     0.13700
H762        H  0.13386864  0.52725377  0.58984702     0.13700
C763        C  0.38780609  0.74538029  0.61620278    -0.15500
C764        C  0.38200597  0.77563841  0.62512168    -0.30700
H765        H  0.40854175  0.74157857  0.63843744     0.13500
H766        H  0.36267767  0.78028397  0.60137431     0.14100
C767        C  0.36983582  0.74635311  0.39321341    -0.15500
C768        C  0.39639910  0.78602295  0.38902951    -0.30700
H769        H  0.35387554  0.72860404  0.36288619     0.13500
H770        H  0.40617625  0.80321509  0.42101589     0.14100
C771        C  0.46864621  0.83324338  0.61789050    -0.12400
C772        C  0.44907446  0.83062295  0.66029092     0.09700
C773        C  0.47379736  0.85376395  0.69791392    -0.12400
C774        C  0.02009245  0.87818242  0.70572691    -0.12400
C775        C  0.04054915  0.88181131  0.66378810     0.09700
C776        C  0.01691883  0.86523885  0.62335435    -0.12400
H777        H  0.45158000  0.81831200  0.58685796     0.13700
H778        H  0.46025869  0.85426198  0.73059489     0.13700
H779        H  0.03671985  0.89177517  0.73743379     0.13700
H780        H  0.03087021  0.86973561  0.58953001     0.13700
C781        C  0.40715454  0.87382086  0.33522511    -0.12400
C782        C  0.38311506  0.83043386  0.67021276     0.09700
C783        C  0.34064757  0.81182321  0.66863847    -0.12400
C784        C  0.32187325  0.83381408  0.66940165    -0.12400
C785        C  0.34431503  0.87597424  0.67050539     0.09700
C786        C  0.38506498  0.89313880  0.33185500    -0.12400
H787        H  0.43967343  0.89257829  0.33799556     0.13700
H788        H  0.32118094  0.78007438  0.66330466     0.13700
H789        H  0.28911465  0.81762288  0.66744195     0.13700
H790        H  0.40193717  0.92553320  0.33128670     0.13700
C791        C  0.40197857  0.80889871  0.99937039    -0.01600
C792        C  0.08213302  0.89867219  0.99803670    -0.01600
C793        C  0.16994559  0.58025107  0.00584613    -0.01600
C794        C  0.08665348  0.66564629  0.67113525    -0.01600
C795        C  0.38967654  0.56707006  0.00837169    -0.01600
C796        C  0.31363158  0.89617602  0.00666699    -0.01600
Fe797      Fe  0.10429549  0.78454331  0.83105095     1.65800
Fe798      Fe  0.20277721  0.80846900  0.83460507     1.73200
Fe799      Fe  0.18145373  0.88350357  0.83201647     1.54400
O800        O  0.14255893  0.87807040  0.77905061    -0.80800
O801        O  0.23442172  0.84639346  0.88816582    -0.79100
O802        O  0.09175263  0.81454562  0.77985020    -0.83300
O803        O  0.09196445  0.81180619  0.88453851    -0.78100
O804        O  0.22408772  0.89747891  0.78026381    -0.79900
O805        O  0.17203896  0.76443498  0.88456680    -0.82600
C806        C  0.10863224  0.84727508  0.90012977     0.98100
C807        C  0.10923938  0.84985858  0.76318686     1.05600
O808        O  0.16277713  0.82548204  0.83261105    -1.11600
O809        O  0.17568111  0.76884002  0.78109163    -0.74100
O810        O  0.11140252  0.75333286  0.77816314    -0.77500
O811        O  0.14073904  0.87650693  0.88289204    -0.78200
C812        C  0.14062594  0.75039821  0.76329745     0.97000
O813        O  0.10766507  0.74771293  0.88126143    -0.76200
O814        O  0.23862554  0.84942159  0.78457837    -0.81400
C815        C  0.23922385  0.87876892  0.90394294     0.99600
C816        C  0.24289156  0.88101242  0.76599705     1.05600
O817        O  0.22264171  0.89649737  0.88571808    -0.77000
C818        C  0.13568900  0.74349474  0.89813104     1.03900
Fe819      Fe  0.38339599  0.67957571  0.82800902     1.65800
Fe820      Fe  0.29669357  0.58896290  0.83436473     1.73200
Fe821      Fe  0.29407514  0.67373944  0.84739474     1.52800
O822        O  0.33948534  0.71904381  0.88902980    -0.80800
O823        O  0.25792828  0.58653005  0.78283425    -0.79100
O824        O  0.39178901  0.70994151  0.88908044    -0.83300
O825        O  0.38113060  0.72354872  0.78762591    -0.78100
O826        O  0.26793119  0.64099206  0.90656428    -0.79900
O827        O  0.33395534  0.58823333  0.78303647    -0.82600
C828        C  0.35205571  0.72634993  0.77074130     0.98100
C829        C  0.37340611  0.72611628  0.90530675     1.05600
O830        O  0.32471287  0.64743673  0.83681568    -1.11600
O831        O  0.33279278  0.58765176  0.88635720    -0.74100
O832        O  0.39339512  0.63946158  0.86646886    -0.77500
O833        O  0.31662957  0.70709649  0.78741240    -0.78200
C834        C  0.37096711  0.60806303  0.89074580     0.97000
O835        O  0.37985057  0.65193315  0.76647617    -0.76200
O836        O  0.25556424  0.58080457  0.88519539    -0.81400
C837        C  0.23628157  0.60227744  0.78315490     0.99600
C838        C  0.24986902  0.60323449  0.91155921     1.05600
O839        O  0.24409028  0.63179932  0.80885357    -0.77000
C840        C  0.36174181  0.61496994  0.75747756     1.03900
C841        C  0.27014624  0.89858821  0.72525375    -0.15500
C842        C  0.29222563  0.88309757  0.71060235    -0.30700
H843        H  0.27215457  0.92425218  0.70748664     0.13500
H844        H  0.29088524  0.85907509  0.73164458     0.14100
C845        C  0.28785888  0.88206982  0.96205250    -0.15500
C846        C  0.26443883  0.89590471  0.94609141    -0.30700
H847        H  0.28936275  0.85996188  0.94087746     0.13500
H848        H  0.26412290  0.92018248  0.96363182     0.14100
C849        C  0.39026209  0.59536461  0.92594918    -0.15500
C850        C  0.37133569  0.57748423  0.96631166    -0.30700
H851        H  0.42092454  0.60273903  0.91933133     0.13500
H852        H  0.33988193  0.56913580  0.96978702     0.14100
C853        C  0.39182980  0.58206602  0.71647437    -0.15500
C854        C  0.37278808  0.60282087  0.71491037    -0.30700
H855        H  0.40128336  0.57713306  0.75050254     0.13500
H856        H  0.36646084  0.61286823  0.68227023     0.14100
C857        C  0.36374956  0.49777971  0.71606229    -0.12400
C858        C  0.37434708  0.52165257  0.00527914     0.09700
C859        C  0.36902294  0.50309919  0.96157588    -0.12400
C860        C  0.35322509  0.96535111  0.96573773    -0.12400
C861        C  0.34086657  0.94237713  0.00738456     0.09700
C862        C  0.36400704  0.96325956  0.71323498    -0.12400
H863        H  0.36114576  0.51109232  0.74757207     0.13700
H864        H  0.37798352  0.52047278  0.92958056     0.13700
H865        H  0.34547340  0.95111081  0.93197676     0.13700
H866        H  0.35901769  0.94597652  0.74496854     0.13700
C867        C  0.13417404  0.72465199  0.72331611    -0.15500
C868        C  0.09727312  0.69353726  0.71314026    -0.30700
H869        H  0.16053673  0.73004557  0.70424737     0.13500
H870        H  0.07291210  0.68816363  0.73656450     0.14100
C871        C  0.12677935  0.71479721  0.93698650    -0.15500
C872        C  0.08889558  0.68767686  0.95142029    -0.30700
H873        H  0.15240349  0.71874404  0.95744434     0.13500
H874        H  0.06332249  0.68286793  0.93017919     0.14100
C875        C  0.01789097  0.59704161  0.67741341    -0.12400
C876        C  0.03434513  0.64108241  0.00767793     0.09700
C877        C  0.01037970  0.65875196  0.00659935    -0.12400
C878        C  0.45885635  0.63250274  0.99529999    -0.12400
C879        C  0.43688124  0.59222664  0.01052586     0.09700
C880        C  0.47404267  0.57379844  0.67883512    -0.12400
H881        H  0.03288288  0.58032726  0.68178558     0.13700
H882        H  0.02457548  0.69086573  0.00196984     0.13700
H883        H  0.44370766  0.64797787  0.98430891     0.13700
H884        H  0.46028733  0.54219656  0.68661152     0.13700
C885        C  0.20573027  0.58653325  0.70568756    -0.15500
C886        C  0.20084926  0.58631799  0.75202955    -0.30700
H887        H  0.23664394  0.59723346  0.69473753     0.13500
H888        H  0.17226742  0.57963033  0.76679582     0.14100
C889        C  0.19649242  0.59714171  0.96249098    -0.15500
C890        C  0.22103265  0.58411844  0.94942559    -0.30700
H891        H  0.19728134  0.62166255  0.94300263     0.13500
H892        H  0.21932276  0.55835554  0.96676742     0.14100
C893        C  0.15741879  0.62657130  0.70598297    -0.12400
C894        C  0.14537561  0.60127026  0.00814301     0.09700
C895        C  0.11365439  0.59105320  0.97585140    -0.12400
C896        C  0.09386650  0.61263100  0.97302499    -0.12400
C897        C  0.10811096  0.64138942  0.67243757     0.09700
C898        C  0.13532321  0.64558076  0.70822088    -0.12400
H899        H  0.18061298  0.63518326  0.73201542     0.13700
H900        H  0.10471631  0.56684092  0.95158640     0.13700
H901        H  0.07017131  0.60401095  0.94720315     0.13700
H902        H  0.14086744  0.66422822  0.73813389     0.13700
C903        C  0.10010647  0.89132670  0.95446711    -0.15500
C904        C  0.09006007  0.85427125  0.94088977    -0.30700
H905        H  0.12270350  0.91690595  0.93438016     0.13500
H906        H  0.06715595  0.82829514  0.96017060     0.14100
C907        C  0.10511757  0.89503212  0.70495256    -0.15500
C908        C  0.08983487  0.85795843  0.72331571    -0.30700
H909        H  0.13274529  0.91950125  0.72007756     0.13500
H910        H  0.06227918  0.83294938  0.70897593     0.14100
C911        C  0.09905572  0.96640023  0.96253202    -0.12400
C912        C  0.09837641  0.94399844  0.00193025     0.09700
C913        C  0.10459607  0.96951605  0.70487508    -0.12400
C914        C  0.12797275  0.50609574  0.70598842    -0.12400
C915        C  0.14130718  0.53413602  0.00240154     0.09700
C916        C  0.13288251  0.51430286  0.95910958    -0.12400
H917        H  0.08584827  0.95158018  0.92980762     0.13700
H918        H  0.09451902  0.95291141  0.73733685     0.13700
H919        H  0.13529278  0.51878104  0.74026437     0.13700
H920        H  0.14205273  0.53089429  0.92653278     0.13700
C921        C  0.39261349  0.75364622  0.94515696    -0.15500
C922        C  0.38378355  0.78158326  0.95649520    -0.30700
H923        H  0.41528903  0.75142169  0.96541066     0.13500
H924        H  0.36222363  0.78434841  0.93458696     0.14100
C925        C  0.35819977  0.75164550  0.72905098    -0.15500
C926        C  0.39481481  0.77885183  0.71180257    -0.30700
H927        H  0.33094469  0.74579700  0.71161950     0.13500
H928        H  0.42087812  0.78197447  0.73049741     0.14100
C929        C  0.46941934  0.84204330  0.95291252    -0.12400
C930        C  0.44878149  0.83670897  0.99520437     0.09700
C931        C  0.47247815  0.85840200  0.03420709    -0.12400
C932        C  0.01403862  0.87549147  0.03692163    -0.12400
C933        C  0.03547069  0.87688811  0.99670859     0.09700
C934        C  0.01284589  0.85931198  0.95579096    -0.12400
H935        H  0.45319779  0.82918978  0.92075015     0.13700
H936        H  0.45811666  0.85778322  0.06669015     0.13700
H937        H  0.03025774  0.89068487  0.06834887     0.13700
H938        H  0.02740393  0.86254254  0.92268506     0.13700
C939        C  0.40582938  0.87297238  0.67082524    -0.12400
C940        C  0.38107865  0.83361256  0.00336863     0.09700
C941        C  0.33849309  0.81343882  0.00406061    -0.12400
C942        C  0.31815786  0.83386551  0.00660123    -0.12400
C943        C  0.33896242  0.87596837  0.00717004     0.09700
C944        C  0.38680075  0.89528157  0.67129075    -0.12400
H945        H  0.43841488  0.88988799  0.66971290     0.13700
H946        H  0.31990789  0.78156649  0.99993010     0.13700
H947        H  0.28536327  0.81641949  0.00649671     0.13700
H948        H  0.40570842  0.92761625  0.67123711     0.13700
C949        C  0.89562933  0.30405349  0.33160166    -0.01600
C950        C  0.58360817  0.40201920  0.32627809    -0.01600
C951        C  0.67059166  0.08171598  0.33291816    -0.01600
C952        C  0.58335238  0.16859811  0.99332153    -0.01600
C953        C  0.90153630  0.06454303  0.33271422    -0.01600
C954        C  0.80686786  0.39105781  0.32842554    -0.01600
Fe955      Fe  0.59349507  0.27942732  0.16451384     1.65800
Fe956      Fe  0.68978521  0.29881110  0.16224511     1.73200
Fe957      Fe  0.67237967  0.37531600  0.15828726     1.54400
O958        O  0.63665906  0.36884485  0.10188782    -0.80800
O959        O  0.73196890  0.34530072  0.20379048    -0.79100
O960        O  0.57889702  0.31228363  0.11864341    -0.83300
O961        O  0.58821451  0.30734079  0.22179332    -0.78100
O962        O  0.71842260  0.38672069  0.11158043    -0.79900
O963        O  0.66571175  0.26733717  0.22203913    -0.82600
C964        C  0.60275121  0.34414113  0.23004452     0.98100
C965        C  0.59929072  0.34430430  0.09467507     1.05600
O966        O  0.65182259  0.31780154  0.16105048    -1.11600
O967        O  0.65163068  0.24781886  0.12353949    -0.74100
O968        O  0.59487185  0.24801386  0.10881636    -0.77500
O969        O  0.62974340  0.37198958  0.20466212    -0.78200
C970        C  0.61726379  0.23348566  0.10390364     0.97000
O971        O  0.59960718  0.24083713  0.21000441    -0.76200
O972        O  0.71790887  0.32977331  0.10220973    -0.81400
C973        C  0.73105008  0.37243097  0.22683197     0.99600
C974        C  0.73034127  0.36593759  0.09105392     1.05600
O975        O  0.70841570  0.38567896  0.21568057    -0.77000
C976        C  0.62922172  0.24228611  0.23164896     1.03900
Fe977      Fe  0.89023960  0.18260843  0.16155375     1.65800
Fe978      Fe  0.80654332  0.09011013  0.16864653     1.73200
Fe979      Fe  0.79760381  0.17231686  0.17157425     1.52800
O980        O  0.83738172  0.21415967  0.22069287    -0.80800
O981        O  0.76872699  0.08303153  0.11433922    -0.79100
O982        O  0.89320414  0.21010764  0.22278326    -0.83300
O983        O  0.88948517  0.22749808  0.12188590    -0.78100
O984        O  0.76459607  0.13694769  0.22674316    -0.79900
O985        O  0.84702700  0.09228447  0.11980229    -0.82600
C986        C  0.86211101  0.23304463  0.10549772     0.98100
C987        C  0.87132338  0.22257833  0.23879806     1.05600
O988        O  0.83122653  0.14841502  0.16718052    -1.11600
O989        O  0.84266860  0.09255238  0.22224868    -0.74100
O990        O  0.90204508  0.14337875  0.19864806    -0.77500
O991        O  0.82556055  0.21182354  0.11758202    -0.78200
C992        C  0.88091423  0.11212811  0.22335255     0.97000
O993        O  0.88984889  0.15645358  0.10088897    -0.76200
O994        O  0.76328999  0.07981381  0.21854972    -0.81400
C995        C  0.75057958  0.10087565  0.10185253     0.99600
C996        C  0.75223691  0.10121912  0.23897227     1.05600
O997        O  0.75563914  0.13217955  0.12229888    -0.77000
C998        C  0.87456388  0.11942498  0.09410114     1.03900
C999        C  0.75998378  0.38498194  0.05279195    -0.15500
C1000       C  0.78544825  0.37248580  0.04142076    -0.30700
H1001       H  0.76255079  0.41115779  0.03581824     0.13500
H1002       H  0.78406899  0.34838107  0.06236413     0.14100
C1003       C  0.78200863  0.37721295  0.28313675    -0.15500
C1004       C  0.75616117  0.38862141  0.26917907    -0.30700
H1005       H  0.78550905  0.35696567  0.26067134     0.13500
H1006       H  0.75287731  0.40995860  0.28955254     0.14100
C1007       C  0.90181890  0.09865874  0.25485021    -0.15500
C1008       C  0.88248658  0.07490269  0.29173363    -0.30700
H1009       H  0.93355079  0.10997587  0.24855814     0.13500
H1010       H  0.84993609  0.06210180  0.29415483     0.14100
C1011       C  0.87733131  0.06981704  0.04518653    -0.15500
C1012       C  0.88977157  0.10813385  0.05455562    -0.30700
H1013       H  0.85534435  0.04665124  0.06825634     0.13500
H1014       H  0.91053692  0.13191331  0.03104819     0.14100
C1015       C  0.86568268  0.99023625  0.03764526    -0.12400
C1016       C  0.88705111  0.01964392  0.32867927     0.09700
C1017       C  0.87799734  0.00092968  0.28470108    -0.12400
C1018       C  0.84019583  0.46278432  0.29245702    -0.12400
C1019       C  0.83392831  0.43728680  0.33104818     0.09700
C1020       C  0.85111637  0.45603510  0.04944280    -0.12400
H1021       H  0.87407606  0.00346944  0.07187361     0.13700
H1022       H  0.88631805  0.01833303  0.25268185     0.13700
H1023       H  0.82907508  0.45098780  0.25805497     0.13700
H1024       H  0.84047957  0.43879479  0.08149894     0.13700
C1025       C  0.60275121  0.19861420  0.07390106    -0.15500
C1026       C  0.59892964  0.20277317  0.02826884    -0.30700
H1027       H  0.59691209  0.17032610  0.08860513     0.13500
H1028       H  0.60690815  0.23244733  0.01557611     0.14100
C1029       C  0.62205014  0.21514619  0.27076496    -0.15500
C1030       C  0.58517383  0.18474934  0.28277623    -0.30700
H1031       H  0.64787000  0.22282864  0.29308277     0.13500
H1032       H  0.55961033  0.17693417  0.25978657     0.14100
C1033       C  0.51592645  0.10287268  0.01673850    -0.12400
C1034       C  0.53215337  0.13886406  0.33886623     0.09700
C1035       C  0.50916926  0.15713917  0.33355087    -0.12400
C1036       C  0.96857371  0.13271158  0.32714433    -0.12400
C1037       C  0.94825761  0.09116618  0.33675550     0.09700
C1038       C  0.95850081  0.07685687  0.02789829    -0.12400
H1039       H  0.53182456  0.08827338  0.02817314     0.13700
H1040       H  0.52380610  0.18897849  0.32624489     0.13700
H1041       H  0.95279175  0.14742684  0.31601758     0.13700
H1042       H  0.94397832  0.05379650  0.05438347     0.13700
C1043       C  0.69589199  0.09358475  0.04901868    -0.15500
C1044       C  0.72400325  0.08454945  0.06030607    -0.30700
H1045       H  0.69052243  0.11082592  0.07421250     0.13500
H1046       H  0.72833211  0.06501807  0.03757868     0.14100
C1047       C  0.70181366  0.09942773  0.29324409    -0.15500
C1048       C  0.72394731  0.08382297  0.27868841    -0.30700
H1049       H  0.70518478  0.12537219  0.27443400     0.13500
H1050       H  0.71949070  0.05635125  0.29418562     0.14100
C1051       C  0.66646038  0.14322674  0.01411177    -0.12400
C1052       C  0.64627901  0.10298477  0.33058591     0.09700
C1053       C  0.60763474  0.08552008  0.30972145    -0.12400
C1054       C  0.58687463  0.10614200  0.30795778    -0.12400
C1055       C  0.60573170  0.14530962  0.99621717     0.09700
C1056       C  0.64492440  0.16278754  0.01541788    -0.12400
H1057       H  0.69701509  0.15929656  0.02776456     0.13700
H1058       H  0.59367484  0.05645026  0.29345854     0.13700
H1059       H  0.55852161  0.09276166  0.28898835     0.13700
H1060       H  0.66015477  0.19257881  0.02995114     0.13700
C1061       C  0.59940123  0.39226895  0.28262655    -0.15500
C1062       C  0.58750831  0.35430108  0.27122668    -0.30700
H1063       H  0.62156884  0.41655419  0.26068459     0.13500
H1064       H  0.56554053  0.32971316  0.29299516     0.14100
C1065       C  0.59960328  0.38641058  0.02981133    -0.15500
C1066       C  0.57863150  0.35366544  0.05728871    -0.30700
H1067       H  0.63232449  0.40421313  0.03405089     0.13500
H1068       H  0.54635833  0.33344829  0.05235849     0.14100
C1069       C  0.60189122  0.46890589  0.28832530    -0.12400
C1070       C  0.60132900  0.44757454  0.32857955     0.09700
C1071       C  0.61639988  0.46675370  0.03631538    -0.12400
C1072       C  0.63314389  0.00995397  0.04279045    -0.12400
C1073       C  0.64234429  0.03565908  0.32905507     0.09700
C1074       C  0.63540828  0.01575347  0.28618097    -0.12400
H1075       H  0.58762771  0.45323071  0.25633735     0.13700
H1076       H  0.61518066  0.45107979  0.06822651     0.13700
H1077       H  0.64322336  0.02308297  0.07692056     0.13700
H1078       H  0.64557411  0.03242694  0.25371068     0.13700
C1079       C  0.88707655  0.24812303  0.28026424    -0.15500
C1080       C  0.87738038  0.27557362  0.29004834    -0.30700
H1081       H  0.90957632  0.24645621  0.30158408     0.13500
H1082       H  0.85618107  0.27790593  0.26696723     0.14100
C1083       C  0.87238095  0.26583870  0.07175874    -0.15500
C1084       C  0.89703185  0.27325280  0.03529925    -0.30700
H1085       H  0.85686796  0.28203172  0.07588201     0.13500
H1086       H  0.91117268  0.25545554  0.03292148     0.14100
C1087       C  0.96284054  0.33543081  0.28459637    -0.12400
C1088       C  0.94194428  0.33231835  0.32607474     0.09700
C1089       C  0.96503025  0.35577013  0.36426623    -0.12400
C1090       C  0.51756475  0.38136491  0.36808341    -0.12400
C1091       C  0.53727271  0.38152215  0.32694880     0.09700
C1092       C  0.51322802  0.36265809  0.28743983    -0.12400
H1093       H  0.94690911  0.32110116  0.25277282     0.13700
H1094       H  0.95027162  0.35645512  0.39585760     0.13700
H1095       H  0.53500141  0.39788113  0.39832495     0.13700
H1096       H  0.52646932  0.36526808  0.25357704     0.13700
C1097       C  0.90524712  0.37029535  0.00662334    -0.12400
C1098       C  0.87417936  0.32832943  0.33391422     0.09700
C1099       C  0.83157180  0.30791006  0.33329270    -0.12400
C1100       C  0.81109537  0.32835630  0.33102924    -0.12400
C1101       C  0.83187948  0.37054936  0.33012953     0.09700
C1102       C  0.88410041  0.39056352  0.00756945    -0.12400
H1103       H  0.93783028  0.38836445  0.00919794     0.13700
H1104       H  0.81331762  0.27578804  0.33110968     0.13700
H1105       H  0.77832709  0.31086672  0.32947070     0.13700
H1106       H  0.90159912  0.42279565  0.01106592     0.13700
C1107       C  0.89827119  0.30563205  0.65582116    -0.01600
C1108       C  0.58359976  0.40103202  0.66421372    -0.01600
C1109       C  0.66960325  0.07457283  0.66552170    -0.01600
C1110       C  0.57824657  0.16509143  0.33080804    -0.01600
C1111       C  0.90005200  0.06931384  0.66865242    -0.01600
C1112       C  0.81511460  0.39709303  0.65458549    -0.01600
Fe1113     Fe  0.59213593  0.27857309  0.49863219     1.65800
Fe1114     Fe  0.68984247  0.30136273  0.49693942     1.73200
Fe1115     Fe  0.66997999  0.37590242  0.49598019     1.54400
O1116       O  0.63402570  0.36976190  0.44027253    -0.80800
O1117       O  0.73262537  0.34907970  0.53660714    -0.79100
O1118       O  0.57799765  0.30963657  0.44963497    -0.83300
O1119       O  0.58147207  0.30566772  0.55316338    -0.78100
O1120       O  0.71586591  0.38911499  0.44826459    -0.79900
O1121       O  0.66709302  0.27073521  0.55776220    -0.82600
C1122       C  0.59634119  0.34217965  0.56329127     0.98100
C1123       C  0.59807744  0.34348958  0.42896879     1.05600
O1124       O  0.65037629  0.31853859  0.49694686    -1.11600
O1125       O  0.65317921  0.24895066  0.45966894    -0.74100
O1126       O  0.59556517  0.24675500  0.44457183    -0.77500
O1127       O  0.62684288  0.37050050  0.54242137    -0.78200
C1128       C  0.61885979  0.23335120  0.43984572     0.97000
O1129       O  0.60026051  0.24307531  0.54767838    -0.76200
O1130       O  0.71520966  0.33238245  0.43583564    -0.81400
C1131       C  0.73154833  0.37532936  0.56123044     0.99600
C1132       C  0.72677531  0.36858032  0.42536549     1.05600
O1133       O  0.70678281  0.38659275  0.55304869    -0.77000
C1134       C  0.63082644  0.24650479  0.56958360     1.03900
Fe1135     Fe  0.88323949  0.17822365  0.48910089     1.65800
Fe1136     Fe  0.80243505  0.08435358  0.49771280     1.73200
Fe1137     Fe  0.79026644  0.16423809  0.50403569     1.52800
O1138       O  0.83217006  0.20992807  0.54950351    -0.80800
O1139       O  0.76520657  0.07739884  0.44292763    -0.79100
O1140       O  0.88822437  0.20655325  0.54954994    -0.83300
O1141       O  0.87861784  0.22116454  0.44894986    -0.78100
O1142       O  0.76196641  0.12981224  0.56154361    -0.79900
O1143       O  0.84430805  0.08777495  0.44962616    -0.82600
C1144       C  0.84859538  0.22166272  0.43107727     0.98100
C1145       C  0.86711259  0.21960146  0.56586696     1.05600
O1146       O  0.82510335  0.14231529  0.49748025    -1.11600
O1147       O  0.83876157  0.08860446  0.55218438    -0.74100
O1148       O  0.89720990  0.14053214  0.52725294    -0.77500
O1149       O  0.81308733  0.19953252  0.44602266    -0.78200
C1150       C  0.87699441  0.11018006  0.55395890     0.97000
O1151       O  0.88112839  0.15196191  0.42836368    -0.76200
O1152       O  0.75740994  0.07187493  0.54599669    -0.81400
C1153       C  0.74406367  0.09296029  0.43448814     0.99600
C1154       C  0.74757624  0.09285326  0.56948633     1.05600
O1155       O  0.74638597  0.12140713  0.45875752    -0.77000
C1156       C  0.86907491  0.11557235  0.42237031     1.03900
C1157       C  0.75410993  0.38785243  0.38502778    -0.15500
C1158       C  0.77807413  0.37464528  0.37048783    -0.30700
H1159       H  0.75577985  0.41388599  0.36871605     0.13500
H1160       H  0.77778309  0.35114264  0.39157831     0.14100
C1161       C  0.78700929  0.38270006  0.61171685    -0.15500
C1162       C  0.75947006  0.39292078  0.60144468    -0.30700
H1163       H  0.78942518  0.36263777  0.58778625     0.13500
H1164       H  0.75684058  0.41394919  0.62320769     0.14100
C1165       C  0.89897122  0.10005624  0.58848297    -0.15500
C1166       C  0.88012425  0.07726744  0.62649020    -0.30700
H1167       H  0.93110848  0.11319263  0.58312859     0.13500
H1168       H  0.84750491  0.06364332  0.62843386     0.14100
C1169       C  0.88332186  0.07171963  0.37588292    -0.15500
C1170       C  0.88578444  0.10683297  0.38231083    -0.30700
H1171       H  0.86593864  0.04793216  0.40094504     0.13500
H1172       H  0.90068930  0.13080829  0.35698484     0.14100
C1173       C  0.87990125  0.99522225  0.36845973    -0.12400
C1174       C  0.88222503  0.02336316  0.67097634     0.09700
C1175       C  0.88330534  0.00312294  0.63105526    -0.12400
C1176       C  0.84760812  0.46780566  0.61704178    -0.12400
C1177       C  0.84279223  0.44316684  0.65586266     0.09700
C1178       C  0.85350932  0.45538815  0.37321667    -0.12400
H1179       H  0.89012654  0.00808510  0.40270502     0.13700
H1180       H  0.89839316  0.01992369  0.59977514     0.13700
H1181       H  0.83463043  0.45517522  0.58343357     0.13700
H1182       H  0.85122227  0.43708254  0.40310662     0.13700
C1183       C  0.60529162  0.19826394  0.41001405    -0.15500
C1184       C  0.59383543  0.19931570  0.36608610    -0.30700
H1185       H  0.60618666  0.17258649  0.42334898     0.13500
H1186       H  0.59493566  0.22663339  0.35473858     0.14100
C1187       C  0.62489517  0.22310953  0.61208447    -0.15500
C1188       C  0.59278277  0.18603289  0.61879223    -0.30700
H1189       H  0.64765201  0.23765713  0.63915484     0.13500
H1190       H  0.57186057  0.17143228  0.58990804     0.14100
C1191       C  0.51112029  0.09785154  0.35108247    -0.12400
C1192       C  0.53627516  0.14072446  0.67193759     0.09700
C1193       C  0.51363923  0.15704808  0.65401971    -0.12400
C1194       C  0.96750293  0.13551810  0.66083897    -0.12400
C1195       C  0.94692275  0.09345849  0.66633740     0.09700
C1196       C  0.97187955  0.07639278  0.35593635    -0.12400
H1197       H  0.52686518  0.08277286  0.36109212     0.13700
H1198       H  0.52823876  0.18588630  0.63640675     0.13700
H1199       H  0.95071059  0.15059156  0.65707350     0.13700
H1200       H  0.95824684  0.04596906  0.36861467     0.13700
C1201       C  0.69365338  0.09201032  0.37977364    -0.15500
C1202       C  0.71728722  0.07786240  0.39314804    -0.30700
H1203       H  0.69084068  0.11154834  0.40402348     0.13500
H1204       H  0.71869552  0.05583514  0.37197290     0.14100
C1205       C  0.69490098  0.08783348  0.62097697    -0.15500
C1206       C  0.71866342  0.07378758  0.60807618    -0.30700
H1207       H  0.69494305  0.11084162  0.59912133     0.13500
H1208       H  0.71748519  0.04881185  0.62673564     0.14100
C1209       C  0.66431733  0.14304175  0.34535863    -0.12400
C1210       C  0.64572077  0.09656449  0.66673281     0.09700
C1211       C  0.60308394  0.07631472  0.66715145    -0.12400
C1212       C  0.58279478  0.09742194  0.66505450    -0.12400
C1213       C  0.60183658  0.14287741  0.33134386     0.09700
C1214       C  0.64226653  0.16200902  0.34718288    -0.12400
H1215       H  0.69568620  0.15984261  0.35636539     0.13700
H1216       H  0.58476506  0.04397605  0.66763371     0.13700
H1217       H  0.55047590  0.07975567  0.66027627     0.13700
H1218       H  0.65790639  0.19246763  0.35968169     0.13700
C1219       C  0.59800741  0.38798595  0.62217198    -0.15500
C1220       C  0.57748275  0.35213102  0.60112348    -0.30700
H1221       H  0.62958796  0.40776915  0.61261735     0.13500
H1222       H  0.54759296  0.32930451  0.61309174     0.14100
C1223       C  0.59977318  0.38826573  0.36674300    -0.15500
C1224       C  0.57881207  0.35325231  0.39052203    -0.30700
H1225       H  0.63198492  0.40740080  0.37387323     0.13500
H1226       H  0.54748169  0.33168799  0.38187799     0.14100
C1227       C  0.61539666  0.46851241  0.61943576    -0.12400
C1228       C  0.59828545  0.44596283  0.66057890     0.09700
C1229       C  0.61724899  0.46939207  0.37020438    -0.12400
C1230       C  0.62347602  0.01188650  0.36896342    -0.12400
C1231       C  0.64141820  0.02825012  0.66520291     0.09700
C1232       C  0.61908180  0.00817926  0.62485977    -0.12400
H1233       H  0.61413540  0.45440298  0.58672461     0.13700
H1234       H  0.61470540  0.45435636  0.40308495     0.13700
H1235       H  0.62513566  0.02568982  0.40208761     0.13700
H1236       H  0.61904018  0.02521429  0.59477282     0.13700
C1237       C  0.88535591  0.24677309  0.60580614    -0.15500
C1238       C  0.87955358  0.27704902  0.61405688    -0.30700
H1239       H  0.90714431  0.24370181  0.62657395     0.13500
H1240       H  0.86001304  0.28097330  0.58979665     0.14100
C1241       C  0.85342233  0.24735660  0.39025481    -0.15500
C1242       C  0.88905741  0.27882759  0.37647961    -0.30700
H1243       H  0.82636322  0.23819255  0.37009041     0.13500
H1244       H  0.91524893  0.28488844  0.39730703     0.14100
C1245       C  0.96749582  0.33417913  0.61410310    -0.12400
C1246       C  0.94537114  0.33090615  0.65449202     0.09700
C1247       C  0.96773608  0.35255389  0.69406279    -0.12400
C1248       C  0.51770345  0.35831291  0.71106410    -0.12400
C1249       C  0.53714914  0.37763334  0.66913019     0.09700
C1250       C  0.51269502  0.37542427  0.63119972    -0.12400
H1251       H  0.95223654  0.32019465  0.58183884     0.13700
H1252       H  0.95213746  0.35211693  0.72542280     0.13700
H1253       H  0.53451240  0.36126642  0.74260768     0.13700
H1254       H  0.52643549  0.39105126  0.59885855     0.13700
C1255       C  0.89515250  0.37079502  0.33114403    -0.12400
C1256       C  0.87942833  0.33199949  0.65433423     0.09700
C1257       C  0.83691429  0.31246294  0.65549841    -0.12400
C1258       C  0.81749636  0.33374430  0.65398026    -0.12400
C1259       C  0.83939493  0.37594897  0.65270733     0.09700
C1260       C  0.87446152  0.39145191  0.32961496    -0.12400
H1261       H  0.92767708  0.38885211  0.32881679     0.13700
H1262       H  0.81836625  0.28004734  0.65741040     0.13700
H1263       H  0.78470689  0.31696794  0.65482260     0.13700
H1264       H  0.89224392  0.42377662  0.32695163     0.13700
C1265       C  0.90718637  0.30478912  0.99641911    -0.01600
C1266       C  0.58282843  0.40037493  0.99006106    -0.01600
C1267       C  0.67141535  0.08046786  0.00292282    -0.01600
C1268       C  0.58280754  0.16468997  0.66633267    -0.01600
C1269       C  0.88814105  0.05898990  0.99893192    -0.01600
C1270       C  0.81674301  0.39061507  0.00176235    -0.01600
Fe1271     Fe  0.60735401  0.28438651  0.82760526     1.65800
Fe1272     Fe  0.70519205  0.30673000  0.82943891     1.73200
Fe1273     Fe  0.68506315  0.38264490  0.82976323     1.54400
O1274       O  0.64787200  0.37818599  0.77530638    -0.80800
O1275       O  0.74301573  0.34910376  0.87705965    -0.79100
O1276       O  0.59639793  0.31471966  0.77589436    -0.83300
O1277       O  0.59475213  0.31201808  0.88041152    -0.78100
O1278       O  0.72900352  0.39669293  0.77995627    -0.79900
O1279       O  0.67730239  0.26805677  0.88449388    -0.82600
C1280       C  0.61067030  0.34763288  0.89512267     0.98100
C1281       C  0.61477917  0.34995216  0.75898210     1.05600
O1282       O  0.66577405  0.32450499  0.82902281    -1.11600
O1283       O  0.67328189  0.25971862  0.78409110    -0.74100
O1284       O  0.61197102  0.25098548  0.77603437    -0.77500
O1285       O  0.64322713  0.37656918  0.87853463    -0.78200
C1286       C  0.63802387  0.24168517  0.76676340     0.97000
O1287       O  0.61190963  0.24848793  0.87744595    -0.76200
O1288       O  0.73570977  0.34352036  0.77333371    -0.81400
C1289       C  0.74499987  0.37859103  0.89768647     0.99600
C1290       C  0.74306090  0.37782029  0.75969655     1.05600
O1291       O  0.72424406  0.39370915  0.88502122    -0.77000
C1292       C  0.64045225  0.24596635  0.89606146     1.03900
Fe1293     Fe  0.88517438  0.17080377  0.82471931     1.65800
Fe1294     Fe  0.78674450  0.09496068  0.83670209     1.73200
Fe1295     Fe  0.81066267  0.19273668  0.83133162     1.52800
O1296       O  0.85806633  0.23117556  0.87407543    -0.80800
O1297       O  0.74941234  0.09769549  0.78653396    -0.79100
O1298       O  0.90027618  0.20854759  0.88164675    -0.83300
O1299       O  0.89788940  0.21653854  0.77803263    -0.78100
O1300       O  0.77651506  0.16899580  0.89092897    -0.79900
O1301       O  0.81283144  0.07961712  0.78391676    -0.82600
C1302       C  0.87820517  0.23040965  0.75844615     0.98100
C1303       C  0.88760659  0.23131087  0.89403378     1.05600
O1304       O  0.82736341  0.15264546  0.83086442    -1.11600
O1305       O  0.81909205  0.08398383  0.88697469    -0.74100
O1306       O  0.88301688  0.12736031  0.86754051    -0.77500
O1307       O  0.84319387  0.22130005  0.77178818    -0.78200
C1308       C  0.85665810  0.09660945  0.88930217     0.97000
O1309       O  0.87389515  0.13353384  0.76912269    -0.76200
O1310       O  0.75616028  0.10400755  0.89014931    -0.81400
C1311       C  0.74114768  0.12398451  0.77409792     0.99600
C1312       C  0.75590661  0.13378613  0.90762207     1.05600
O1313       O  0.76014839  0.15949615  0.78953003    -0.77000
C1314       C  0.84576136  0.09761349  0.76101238     1.03900
C1315       C  0.76812604  0.39636817  0.71759949    -0.15500
C1316       C  0.78968050  0.38177355  0.69934823    -0.30700
H1317       H  0.76899257  0.42220024  0.70179419     0.13500
H1318       H  0.79023473  0.35817171  0.71926284     0.14100
C1319       C  0.79349904  0.37954287  0.95522918    -0.15500
C1320       C  0.77118033  0.39480824  0.93949188    -0.30700
H1321       H  0.79483057  0.35762358  0.93352984     0.13500
H1322       H  0.77083467  0.41846566  0.95845747     0.14100
C1323       C  0.87176605  0.07533133  0.91751009    -0.15500
C1324       C  0.86445571  0.06937352  0.96328305    -0.30700
H1325       H  0.89568483  0.07242287  0.90236274     0.13500
H1326       H  0.84196486  0.07567857  0.97640915     0.14100
C1327       C  0.88954560  0.08536316  0.71147544    -0.15500
C1328       C  0.85186264  0.07570797  0.72346430    -0.30700
H1329       H  0.91443809  0.10793045  0.73246819     0.13500
H1330       H  0.82560469  0.05164793  0.70586095     0.14100
C1331       C  0.86400124  0.00003354  0.71138226    -0.12400
C1332       C  0.87306413  0.01375803  0.99680581     0.09700
C1333       C  0.86735886  0.99437740  0.95376303    -0.12400
C1334       C  0.86274469  0.46132282  0.96649936    -0.12400
C1335       C  0.84412315  0.43682381  0.00608374     0.09700
C1336       C  0.86385069  0.46199481  0.69710183    -0.12400
H1337       H  0.86431892  0.01387020  0.74393635     0.13700
H1338       H  0.87647514  0.01079079  0.92134296     0.13700
H1339       H  0.86075964  0.44803243  0.93291706     0.13700
H1340       H  0.86261503  0.44425239  0.72710074     0.13700
C1341       C  0.62666359  0.20779407  0.73538144    -0.15500
C1342       C  0.59663598  0.19664584  0.70420646    -0.30700
H1343       H  0.64354551  0.19282413  0.73823980     0.13500
H1344       H  0.58196766  0.21408297  0.70302999     0.14100
C1345       C  0.63098062  0.21733806  0.93428049    -0.15500
C1346       C  0.59275473  0.18860201  0.94533855    -0.30700
H1347       H  0.65594215  0.22276405  0.95693925     0.13500
H1348       H  0.56813141  0.18273570  0.92171765     0.14100
C1349       C  0.51587821  0.10824497  0.70333348    -0.12400
C1350       C  0.53695084  0.14295014  0.00051527     0.09700
C1351       C  0.51407627  0.16112455  0.99284748    -0.12400
C1352       C  0.95607583  0.11681734  0.96491547    -0.12400
C1353       C  0.93501782  0.08376950  0.99535275     0.09700
C1354       C  0.97066786  0.07634873  0.67580718    -0.12400
H1355       H  0.53242624  0.09893016  0.72542264     0.13700
H1356       H  0.52887427  0.19247485  0.98285639     0.13700
H1357       H  0.94079588  0.12775693  0.94345255     0.13700
H1358       H  0.95679388  0.04485401  0.68434501     0.13700
C1359       C  0.70068779  0.08697284  0.70561788    -0.15500
C1360       C  0.70809980  0.11313167  0.74008520    -0.30700
H1361       H  0.71926330  0.07351834  0.70511531     0.13500
H1362       H  0.69146698  0.12833352  0.74277478     0.14100
C1363       C  0.70117782  0.09057409  0.96244312    -0.15500
C1364       C  0.73000306  0.12756884  0.94862209    -0.30700
H1365       H  0.69939198  0.06573031  0.94358865     0.13500
H1366       H  0.73354784  0.15368460  0.96606114     0.14100
C1367       C  0.66679773  0.13876814  0.66376806    -0.12400
C1368       C  0.64883942  0.10371095  0.99706409     0.09700
C1369       C  0.61068305  0.08748357  0.97499262    -0.12400
C1370       C  0.59078711  0.10888546  0.97243975    -0.12400
C1371       C  0.60395017  0.13978285  0.66698326     0.09700
C1372       C  0.64653408  0.15971947  0.66404894    -0.12400
H1373       H  0.69951778  0.15582315  0.66159754     0.13700
H1374       H  0.59553702  0.05849261  0.95900005     0.13700
H1375       H  0.56276596  0.09615622  0.95284537     0.13700
H1376       H  0.66473619  0.19202341  0.66209174     0.13700
C1377       C  0.59976542  0.39231795  0.94599287    -0.15500
C1378       C  0.59074980  0.35513939  0.93410655    -0.30700
H1379       H  0.62179350  0.41760352  0.92507569     0.13500
H1380       H  0.56835182  0.32944690  0.95420401     0.14100
C1381       C  0.60473937  0.39447882  0.70580543    -0.15500
C1382       C  0.59654501  0.35756995  0.71808011    -0.30700
H1383       H  0.62686824  0.42003806  0.72606050     0.13500
H1384       H  0.57369930  0.33170783  0.69886359     0.14100
C1385       C  0.59927423  0.46822633  0.95548797    -0.12400
C1386       C  0.60000449  0.44593521  0.99416447     0.09700
C1387       C  0.59656913  0.46641751  0.69985798    -0.12400
C1388       C  0.63847453  0.00440795  0.70409949    -0.12400
C1389       C  0.64163879  0.03410780  0.00247637     0.09700
C1390       C  0.62441827  0.01399987  0.95995238    -0.12400
H1391       H  0.58500930  0.45330884  0.92314225     0.13700
H1392       H  0.58144214  0.44996874  0.73130481     0.13700
H1393       H  0.65255388  0.01770196  0.73711294     0.13700
H1394       H  0.62906530  0.03082972  0.92791033     0.13700
C1395       C  0.90669254  0.25791685  0.93466794    -0.15500
C1396       C  0.89321411  0.28145855  0.95045794    -0.30700
H1397       H  0.93031601  0.25637366  0.95361379     0.13500
H1398       H  0.87042994  0.28323247  0.92987862     0.14100
C1399       C  0.89699306  0.25732915  0.71774274    -0.15500
C1400       C  0.88354253  0.28070073  0.70120660    -0.30700
H1401       H  0.92260059  0.25812144  0.70147169     0.13500
H1402       H  0.86052709  0.28169269  0.72160146     0.14100
C1403       C  0.97479390  0.35046660  0.95434563    -0.12400
C1404       C  0.95329236  0.33380297  0.99616578     0.09700
C1405       C  0.97493769  0.34671325  0.03852061    -0.12400
C1406       C  0.51642565  0.38102969  0.03047531    -0.12400
C1407       C  0.53621890  0.37919758  0.99038557     0.09700
C1408       C  0.51205939  0.35887398  0.95139131    -0.12400
H1409       H  0.95922760  0.34436534  0.92113081     0.13700
H1410       H  0.95936634  0.33747042  0.07164940     0.13700
H1411       H  0.53388886  0.39819110  0.06037549     0.13700
H1412       H  0.52531564  0.35922774  0.91826390     0.13700
C1413       C  0.90175102  0.37425585  0.65056391    -0.12400
C1414       C  0.88481281  0.32812175  0.00160660     0.09700
C1415       C  0.84224898  0.30730344  0.99859389    -0.12400
C1416       C  0.82120903  0.32748329  0.99949699    -0.12400
C1417       C  0.84157239  0.36964423  0.00328128     0.09700
C1418       C  0.88200413  0.39595928  0.64998532    -0.12400
H1419       H  0.93436630  0.39087445  0.64802854     0.13700
H1420       H  0.82510613  0.27501527  0.99484248     0.13700
H1421       H  0.78853806  0.30996367  0.99641924     0.13700
H1422       H  0.90035584  0.42826064  0.64732033     0.13700
C1423       C  0.90693817  0.80688840  0.33281400    -0.01600
C1424       C  0.58887337  0.90558012  0.32675264    -0.01600
C1425       C  0.67047886  0.57880031  0.32473232    -0.01600
C1426       C  0.57050872  0.66062514  0.99842952    -0.01600
C1427       C  0.89773260  0.56763792  0.34907440    -0.01600
C1428       C  0.81481906  0.88932530  0.31849792    -0.01600
Fe1429     Fe  0.59464584  0.78090117  0.16144402     1.65800
Fe1430     Fe  0.69088265  0.80021193  0.16073219     1.73200
Fe1431     Fe  0.67428701  0.87698846  0.15713250     1.54400
O1432       O  0.63693322  0.87144723  0.10230684    -0.80800
O1433       O  0.73585096  0.84801436  0.19748627    -0.79100
O1434       O  0.58047637  0.81208149  0.11344980    -0.83300
O1435       O  0.58601265  0.80935418  0.21629563    -0.78100
O1436       O  0.71825555  0.88641867  0.10778428    -0.79900
O1437       O  0.66811763  0.77268778  0.22306537    -0.82600
C1438       C  0.60205223  0.84606418  0.22654612     0.98100
C1439       C  0.60030265  0.84565679  0.09247372     1.05600
O1440       O  0.65304238  0.81948362  0.15928850    -1.11600
O1441       O  0.65252339  0.74736048  0.12564881    -0.74100
O1442       O  0.59729358  0.74858237  0.10702472    -0.77500
O1443       O  0.63280959  0.87386855  0.20524438    -0.78200
C1444       C  0.61939735  0.73358216  0.10366206     0.97000
O1445       O  0.60174717  0.74502477  0.20986965    -0.76200
O1446       O  0.71597412  0.82836194  0.09865653    -0.81400
C1447       C  0.73598444  0.87481393  0.22199563     0.99600
C1448       C  0.72817765  0.86428178  0.08634919     1.05600
O1449       O  0.71232191  0.88746460  0.21353882    -0.77000
C1450       C  0.63150421  0.74887529  0.23373250     1.03900
Fe1451     Fe  0.88561974  0.67745934  0.18540726     1.65800
Fe1452     Fe  0.79499639  0.59070425  0.16877258     1.73200
Fe1453     Fe  0.80293919  0.68059000  0.14954687     1.52800
O1454       O  0.83903713  0.72782326  0.19379311    -0.80800
O1455       O  0.76849234  0.58639771  0.10491547    -0.79100
O1456       O  0.87939946  0.71273899  0.23290312    -0.83300
O1457       O  0.90150806  0.72083176  0.13268545    -0.78100
O1458       O  0.76018397  0.65458015  0.20022499    -0.79900
O1459       O  0.83970854  0.58610162  0.13285202    -0.82600
C1460       C  0.88247054  0.72696911  0.10028080     0.98100
C1461       C  0.86442310  0.73456015  0.22606281     1.05600
O1462       O  0.82778700  0.64934223  0.16807812    -1.11600
O1463       O  0.81593124  0.58498498  0.23283365    -0.74100
O1464       O  0.87836095  0.63771832  0.23955935    -0.77500
O1465       O  0.84414657  0.70845076  0.09774366    -0.78200
C1466       C  0.84962272  0.60375696  0.25370152     0.97000
O1467       O  0.89751341  0.64531851  0.13971877    -0.76200
O1468       O  0.74801989  0.59172452  0.20427595    -0.81400
C1469       C  0.75293874  0.60520441  0.08757229     0.99600
C1470       C  0.74008895  0.61873358  0.21507507     1.05600
O1471       O  0.76168367  0.63931757  0.10218500    -0.77000
C1472       C  0.87713460  0.61030350  0.12337167     1.03900
C1473       C  0.75516744  0.88119207  0.04551036    -0.15500
C1474       C  0.77866875  0.86686929  0.03216438    -0.30700
H1475       H  0.75740868  0.90704427  0.02801131     0.13500
H1476       H  0.77805002  0.84350975  0.05382598     0.14100
C1477       C  0.78826364  0.87700533  0.27444945    -0.15500
C1478       C  0.76373960  0.89082365  0.26260886    -0.30700
H1479       H  0.78938369  0.85581438  0.25120228     0.13500
H1480       H  0.76288358  0.91307099  0.28400669     0.14100
C1481       C  0.85495786  0.58376188  0.29519560    -0.15500
C1482       C  0.89142987  0.59053220  0.30873422    -0.30700
H1483       H  0.82800745  0.56002956  0.31230839     0.13500
H1484       H  0.91782960  0.61377643  0.29023999     0.14100
C1485       C  0.87977879  0.57500648  0.05437206    -0.15500
C1486       C  0.89883642  0.59910116  0.09061092    -0.30700
H1487       H  0.84688030  0.55981943  0.05359190     0.13500
H1488       H  0.93152910  0.61496058  0.09341297     0.14100
C1489       C  0.87051394  0.49777082  0.05207897    -0.12400
C1490       C  0.87729761  0.52223881  0.34078536     0.09700
C1491       C  0.86086989  0.50440244  0.29741340    -0.12400
C1492       C  0.85578129  0.95934318  0.28121964    -0.12400
C1493       C  0.84244250  0.93509930  0.32159219     0.09700
C1494       C  0.84695317  0.94869366  0.03535677    -0.12400
H1495       H  0.87396154  0.51080821  0.08615763     0.13700
H1496       H  0.86408684  0.52236351  0.26688960     0.13700
H1497       H  0.84827381  0.94630315  0.24678712     0.13700
H1498       H  0.84083567  0.93185785  0.06764915     0.13700
C1499       C  0.60646352  0.69872387  0.07338251    -0.15500
C1500       C  0.58370226  0.69325721  0.03536143    -0.30700
H1501       H  0.61689359  0.67848462  0.08208717     0.13500
H1502       H  0.57376103  0.71443021  0.02938479     0.14100
C1503       C  0.62344341  0.72546658  0.27627919    -0.15500
C1504       C  0.59118780  0.68818012  0.27989070    -0.30700
H1505       H  0.64443987  0.73950135  0.30508070     0.13500
H1506       H  0.57285118  0.67428170  0.24890710     0.14100
C1507       C  0.50245459  0.59852965  0.02781289    -0.12400
C1508       C  0.53257852  0.63812662  0.32693060     0.09700
C1509       C  0.50930727  0.65315952  0.30743416    -0.12400
C1510       C  0.96452747  0.58334299  0.31342464    -0.12400
C1511       C  0.94382469  0.58482706  0.35288078     0.09700
C1512       C  0.97127576  0.57595925  0.01803344    -0.12400
H1513       H  0.51841829  0.58620347  0.04556206     0.13700
H1514       H  0.52360845  0.68274906  0.29169501     0.13700
H1515       H  0.94779187  0.56697150  0.28276195     0.13700
H1516       H  0.95771461  0.54403253  0.02318162     0.13700
C1517       C  0.69396008  0.59395258  0.04018719    -0.15500
C1518       C  0.72361164  0.58617102  0.04897052    -0.30700
H1519       H  0.69125536  0.61379385  0.06414073     0.13500
H1520       H  0.72540700  0.56383830  0.02895546     0.14100
C1521       C  0.70028045  0.58673017  0.28512929    -0.15500
C1522       C  0.70650861  0.60918553  0.24687711    -0.30700
H1523       H  0.71845351  0.57297672  0.28886006     0.13500
H1524       H  0.69010760  0.62445635  0.24110785     0.14100
C1525       C  0.65812393  0.63928461  0.00293708    -0.12400
C1526       C  0.64568171  0.59947758  0.31785552     0.09700
C1527       C  0.60299901  0.57828334  0.31575080    -0.12400
C1528       C  0.58177331  0.59837282  0.31607839    -0.12400
C1529       C  0.59346519  0.63725538  0.00032130     0.09700
C1530       C  0.63605392  0.65832763  0.00556597    -0.12400
H1531       H  0.69072060  0.65752595  0.00651805     0.13700
H1532       H  0.58521519  0.54599894  0.31412778     0.13700
H1533       H  0.54962506  0.58036365  0.31017431     0.13700
H1534       H  0.65316073  0.69008881  0.01206611     0.13700
C1535       C  0.60235106  0.89373484  0.28272637    -0.15500
C1536       C  0.58398915  0.85645940  0.26510372    -0.30700
H1537       H  0.63217623  0.91550482  0.26935062     0.13500
H1538       H  0.55589853  0.83277205  0.28021870     0.14100
C1539       C  0.59949686  0.88939484  0.03056160    -0.15500
C1540       C  0.57947238  0.85515357  0.05554143    -0.30700
H1541       H  0.63198756  0.90844899  0.03605418     0.13500
H1542       H  0.54769559  0.83377351  0.04884033     0.14100
C1543       C  0.61678763  0.97410034  0.28465518    -0.12400
C1544       C  0.60407614  0.95077622  0.32599064     0.09700
C1545       C  0.61268416  0.96813036  0.03971537    -0.12400
C1546       C  0.63510230  0.50841373  0.03827567    -0.12400
C1547       C  0.64290190  0.53278908  0.32827999     0.09700
C1548       C  0.62315826  0.51073079  0.28785394    -0.12400
H1549       H  0.61308964  0.96054592  0.25088145     0.13700
H1550       H  0.60804001  0.95124736  0.07167615     0.13700
H1551       H  0.64730643  0.52256722  0.07151158     0.13700
H1552       H  0.62503979  0.52613685  0.25541230     0.13700
C1553       C  0.87623370  0.76912641  0.25641829    -0.15500
C1554       C  0.89874149  0.77584769  0.29520330    -0.30700
H1555       H  0.86493340  0.78846325  0.24675826     0.13500
H1556       H  0.91112679  0.75679635  0.30169167     0.14100
C1557       C  0.90517341  0.75696168  0.06375374    -0.15500
C1558       C  0.89107722  0.78005294  0.04766831    -0.30700
H1559       H  0.93079761  0.75771187  0.04748852     0.13500
H1560       H  0.86735637  0.78012815  0.06769575     0.14100
C1561       C  0.97592142  0.85409330  0.29597852    -0.12400
C1562       C  0.95320925  0.83563188  0.33656963     0.09700
C1563       C  0.97416947  0.84515809  0.37958665    -0.12400
C1564       C  0.52383003  0.86684847  0.37560732    -0.12400
C1565       C  0.54257904  0.88314930  0.33234649     0.09700
C1566       C  0.51767982  0.87964136  0.29437844    -0.12400
H1567       H  0.96087774  0.84947104  0.26255577     0.13700
H1568       H  0.95828535  0.83486944  0.41237849     0.13700
H1569       H  0.54132394  0.87160358  0.40709970     0.13700
H1570       H  0.53092029  0.89353257  0.26113792     0.13700
C1571       C  0.89876628  0.86634915  0.98974464    -0.12400
C1572       C  0.88469055  0.82968019  0.32350407     0.09700
C1573       C  0.84206500  0.80789305  0.32001381    -0.12400
C1574       C  0.82046035  0.82725028  0.31622453    -0.12400
C1575       C  0.84029828  0.86935960  0.31729891     0.09700
C1576       C  0.87644953  0.88543560  0.98834118    -0.12400
H1577       H  0.93129831  0.88501955  0.98703614     0.13700
H1578       H  0.82526216  0.77542125  0.32120090     0.13700
H1579       H  0.78775027  0.80912149  0.31423477     0.13700
H1580       H  0.89318373  0.91769968  0.98459681     0.13700
C1581       C  0.90772365  0.80610564  0.67221417    -0.01600
C1582       C  0.58230115  0.89729406  0.65301925    -0.01600
C1583       C  0.67081620  0.57645440  0.66554047    -0.01600
C1584       C  0.57945955  0.66378194  0.32502589    -0.01600
C1585       C  0.90683253  0.57415822  0.67032374    -0.01600
C1586       C  0.81576041  0.89103037  0.66558026    -0.01600
Fe1587     Fe  0.60540178  0.78220877  0.48935553     1.65800
Fe1588     Fe  0.70225242  0.80213033  0.49260164     1.73200
Fe1589     Fe  0.68475781  0.87965197  0.49099207     1.54400
O1590       O  0.64922428  0.87620049  0.43572602    -0.80800
O1591       O  0.74158778  0.84557552  0.53960845    -0.79100
O1592       O  0.59520167  0.81423430  0.43826942    -0.83300
O1593       O  0.59440810  0.81014265  0.54287719    -0.78100
O1594       O  0.72910734  0.89183877  0.44196541    -0.79900
O1595       O  0.67434733  0.76530362  0.54847150    -0.82600
C1596       C  0.61025025  0.84604001  0.55648408     0.98100
C1597       C  0.61514961  0.84916758  0.42035935     1.05600
O1598       O  0.66402704  0.82127657  0.49108395    -1.11600
O1599       O  0.66840202  0.75414824  0.44808193    -0.74100
O1600       O  0.60901238  0.74916795  0.43664496    -0.77500
O1601       O  0.64239833  0.87489877  0.53878874    -0.78200
C1602       C  0.63376150  0.73789124  0.42888502     0.97000
O1603       O  0.60889738  0.74455769  0.53872673    -0.76200
O1604       O  0.73268113  0.83682632  0.43560593    -0.81400
C1605       C  0.74351963  0.87527650  0.55998280     0.99600
C1606       C  0.74153476  0.87145062  0.42169772     1.05600
O1607       O  0.72266227  0.89012319  0.54698745    -0.77000
C1608       C  0.63736168  0.74253391  0.55871131     1.03900
Fe1609     Fe  0.88313565  0.68223755  0.51691210     1.65800
Fe1610     Fe  0.79341020  0.59479925  0.50519676     1.73200
Fe1611     Fe  0.79929683  0.68395934  0.48557720     1.52800
O1612       O  0.83542037  0.73041925  0.53139002    -0.80800
O1613       O  0.76466283  0.58906454  0.44365752    -0.79100
O1614       O  0.87663351  0.71474324  0.56802542    -0.83300
O1615       O  0.89730168  0.72698799  0.46778089    -0.78100
O1616       O  0.75740795  0.65726013  0.53736215    -0.79900
O1617       O  0.83693900  0.59107076  0.46500663    -0.82600
C1618       C  0.87789449  0.73122062  0.43456790     0.98100
C1619       C  0.86070002  0.73605551  0.56358826     1.05600
O1620       O  0.82501383  0.65341243  0.50287275    -1.11600
O1621       O  0.81658695  0.59008339  0.56730757    -0.74100
O1622       O  0.87979685  0.64145844  0.56713089    -0.77500
O1623       O  0.83960032  0.71259320  0.43275962    -0.78200
C1624       C  0.85187483  0.60823808  0.58371886     0.97000
O1625       O  0.89232730  0.65271560  0.46544776    -0.76200
O1626       O  0.74833753  0.59577442  0.54477776    -0.81400
C1627       C  0.75082771  0.60828154  0.42370589     0.99600
C1628       C  0.74015138  0.62257299  0.55569508     1.05600
O1629       O  0.75906405  0.64262789  0.43711631    -0.77000
C1630       C  0.87196119  0.61756512  0.44952327     1.03900
C1631       C  0.76675450  0.88863587  0.37954356    -0.15500
C1632       C  0.78718362  0.87259452  0.36139766    -0.30700
H1633       H  0.76949656  0.91545999  0.36411825     0.13500
H1634       H  0.78567444  0.84745818  0.38010294     0.14100
C1635       C  0.79272499  0.87865564  0.61871382    -0.15500
C1636       C  0.76967102  0.89259492  0.60181992    -0.30700
H1637       H  0.79478829  0.85680505  0.59768608     0.13500
H1638       H  0.76868440  0.91627229  0.61995239     0.14100
C1639       C  0.86004326  0.58880398  0.62305619    -0.15500
C1640       C  0.89653401  0.59316429  0.62929487    -0.30700
H1641       H  0.83513893  0.56867490  0.64572310     0.13500
H1642       H  0.91999803  0.61154571  0.60409741     0.14100
C1643       C  0.87862134  0.57335867  0.39291672    -0.15500
C1644       C  0.89060831  0.60972630  0.40965304    -0.30700
H1645       H  0.85342705  0.54747649  0.40992800     0.13500
H1646       H  0.91578254  0.63571735  0.39275621     0.14100
C1647       C  0.87538905  0.49706096  0.37771234    -0.12400
C1648       C  0.88685131  0.52835939  0.66349366     0.09700
C1649       C  0.86906199  0.50950557  0.62079941    -0.12400
C1650       C  0.86363430  0.96114576  0.63015213    -0.12400
C1651       C  0.84198150  0.93756647  0.66915320     0.09700
C1652       C  0.85808761  0.95363172  0.36491854    -0.12400
H1653       H  0.88955888  0.50973411  0.41096367     0.13700
H1654       H  0.87120188  0.52665985  0.58989628     0.13700
H1655       H  0.86419804  0.94693897  0.59821270     0.13700
H1656       H  0.85229760  0.93591792  0.39643934     0.13700
C1657       C  0.62178596  0.70416946  0.39662913    -0.15500
C1658       C  0.59116994  0.69293370  0.36595824    -0.30700
H1659       H  0.63930528  0.68981200  0.39779741     0.13500
H1660       H  0.57532093  0.70921444  0.36661352     0.14100
C1661       C  0.62822228  0.71372907  0.59681006    -0.15500
C1662       C  0.59042521  0.68514100  0.60914864    -0.30700
H1663       H  0.65360499  0.71856856  0.61843779     0.13500
H1664       H  0.56504267  0.67951457  0.58698747     0.14100
C1665       C  0.51158781  0.60376789  0.35538750    -0.12400
C1666       C  0.53658253  0.63830507  0.66509775     0.09700
C1667       C  0.51287675  0.65611548  0.66236295    -0.12400
C1668       C  0.97657673  0.63779518  0.66903906    -0.12400
C1669       C  0.95361125  0.59570085  0.67328749     0.09700
C1670       C  0.96717417  0.60423946  0.39274966    -0.12400
H1671       H  0.52791607  0.59428677  0.37765047     0.13700
H1672       H  0.52700125  0.68803253  0.65596605     0.13700
H1673       H  0.96279782  0.65534384  0.66276952     0.13700
H1674       H  0.95320190  0.60334193  0.42552767     0.13700
C1675       C  0.69631773  0.59704219  0.36888854    -0.15500
C1676       C  0.72446109  0.58891442  0.38318634    -0.30700
H1677       H  0.69287688  0.61849187  0.38907299     0.13500
H1678       H  0.72707506  0.56578247  0.36586807     0.14100
C1679       C  0.70326798  0.58932867  0.62768638    -0.15500
C1680       C  0.70948043  0.61405449  0.59154626    -0.30700
H1681       H  0.72103072  0.57502479  0.62872955     0.13500
H1682       H  0.69353144  0.63009115  0.58907393     0.14100
C1683       C  0.66587503  0.64162790  0.31820719    -0.12400
C1684       C  0.64851946  0.60005945  0.66176046     0.09700
C1685       C  0.61375717  0.58674773  0.63356233    -0.12400
C1686       C  0.59383959  0.60829190  0.63090071    -0.12400
C1687       C  0.60183242  0.64022751  0.32273774     0.09700
C1688       C  0.64457843  0.66138950  0.32092451    -0.12400
H1689       H  0.69864367  0.65944231  0.31864149     0.13700
H1690       H  0.60208538  0.55988815  0.61298393     0.13700
H1691       H  0.56783704  0.59752286  0.60801938     0.13700
H1692       H  0.66217274  0.69369335  0.32233476     0.13700
C1693       C  0.59922195  0.89042177  0.60817162    -0.15500
C1694       C  0.59056014  0.85353282  0.59567686    -0.30700
H1695       H  0.62089969  0.91609246  0.58746797     0.13500
H1696       H  0.56850462  0.82767663  0.61585354     0.14100
C1697       C  0.60938298  0.89632587  0.36693275    -0.15500
C1698       C  0.59782207  0.85838725  0.37964273    -0.30700
H1699       H  0.63334924  0.92102396  0.38662531     0.13500
H1700       H  0.57295370  0.83332204  0.36149219     0.14100
C1701       C  0.59821261  0.96617925  0.62205664    -0.12400
C1702       C  0.59972748  0.94281078  0.65904153     0.09700
C1703       C  0.60469394  0.97014078  0.36744422    -0.12400
C1704       C  0.63739711  0.51120739  0.37012066    -0.12400
C1705       C  0.64057662  0.53095761  0.66172363     0.09700
C1706       C  0.63632897  0.51018015  0.62008306    -0.12400
H1707       H  0.58255290  0.95200823  0.58996412     0.13700
H1708       H  0.59242635  0.95306622  0.39938718     0.13700
H1709       H  0.64929019  0.52632416  0.40294274     0.13700
H1710       H  0.65028591  0.52596396  0.58793402     0.13700
C1711       C  0.87184418  0.76901334  0.59653455    -0.15500
C1712       C  0.89546466  0.77458670  0.63390405    -0.30700
H1713       H  0.86059957  0.78881764  0.58931172     0.13500
H1714       H  0.90772021  0.75514130  0.63807029     0.14100
C1715       C  0.90078983  0.75860701  0.39635152    -0.15500
C1716       C  0.88905754  0.78268242  0.37768482    -0.30700
H1717       H  0.92706348  0.75873874  0.38307403     0.13500
H1718       H  0.86438033  0.78338041  0.39466399     0.14100
C1719       C  0.97473525  0.84222401  0.62578747    -0.12400
C1720       C  0.95427968  0.83489963  0.66878986     0.09700
C1721       C  0.97785932  0.85568501  0.70805187    -0.12400
C1722       C  0.51594010  0.87630951  0.69426892    -0.12400
C1723       C  0.53553144  0.87573557  0.65343469     0.09700
C1724       C  0.51096465  0.85537054  0.61452334    -0.12400
H1725       H  0.95827032  0.82994513  0.59357292     0.13700
H1726       H  0.96376043  0.85425653  0.74100675     0.13700
H1727       H  0.53352935  0.89298115  0.72436350     0.13700
H1728       H  0.52405447  0.85622089  0.58109858     0.13700
C1729       C  0.90473939  0.87187189  0.32239127    -0.12400
C1730       C  0.88508348  0.82959154  0.66994893     0.09700
C1731       C  0.84251239  0.80890397  0.66676536    -0.12400
C1732       C  0.82151063  0.82897117  0.66534863    -0.12400
C1733       C  0.84155284  0.87108626  0.66776034     0.09700
C1734       C  0.88304469  0.89129770  0.31912300    -0.12400
H1735       H  0.93722785  0.89052941  0.32562136     0.13700
H1736       H  0.82466307  0.77692059  0.66281620     0.13700
H1737       H  0.78885899  0.81119685  0.66194936     0.13700
H1738       H  0.90039913  0.92367722  0.31921214     0.13700
C1739       C  0.90293521  0.80215492  0.00079655    -0.01600
C1740       C  0.58209854  0.90304259  0.99127438    -0.01600
C1741       C  0.66513077  0.57772580  0.99760932    -0.01600
C1742       C  0.58281503  0.66504786  0.65702960    -0.01600
C1743       C  0.89957656  0.56750818  0.01260417    -0.01600
C1744       C  0.80771534  0.88290391  0.99024926    -0.01600
Fe1745     Fe  0.59023587  0.77733550  0.83071411     1.65800
Fe1746     Fe  0.68623203  0.79384141  0.82593954     1.73200
Fe1747     Fe  0.67191502  0.87311249  0.82357331     1.54400
O1748       O  0.63401964  0.86759082  0.76942210    -0.80800
O1749       O  0.72824115  0.83758799  0.86963697    -0.79100
O1750       O  0.57751787  0.80816755  0.78037780    -0.83300
O1751       O  0.58481172  0.80881316  0.88437388    -0.78100
O1752       O  0.71483750  0.88280240  0.77381818    -0.79900
O1753       O  0.66024876  0.75985711  0.88479061    -0.82600
C1754       C  0.60229609  0.84554610  0.89488300     0.98100
C1755       C  0.59774468  0.84143046  0.75876436     1.05600
O1756       O  0.64936115  0.81466470  0.82626846    -1.11600
O1757       O  0.64868437  0.74530291  0.78413720    -0.74100
O1758       O  0.58868807  0.74055737  0.77908695    -0.77500
O1759       O  0.63273159  0.87265789  0.87283782    -0.78200
C1760       C  0.61258309  0.72869809  0.76907078     0.97000
O1761       O  0.59513664  0.74143918  0.88087757    -0.76200
O1762       O  0.71685484  0.82697241  0.76727091    -0.81400
C1763       C  0.73158908  0.86774804  0.89017375     0.99600
C1764       C  0.72768031  0.86246674  0.75439564     1.05600
O1765       O  0.71128396  0.88357167  0.87829102    -0.77000
C1766       C  0.62419107  0.73977705  0.89945134     1.03900
Fe1767     Fe  0.88238825  0.68381482  0.83832735     1.65800
Fe1768     Fe  0.80414498  0.58650003  0.83692550     1.73200
Fe1769     Fe  0.78615606  0.66308650  0.83169225     1.52800
O1770       O  0.82090874  0.71244513  0.87387106    -0.80800
O1771       O  0.76739650  0.57565733  0.77895606    -0.79100
O1772       O  0.87631848  0.71205154  0.89493502    -0.83300
O1773       O  0.87897871  0.72417308  0.79267897    -0.78100
O1774       O  0.75492290  0.63033084  0.88901924    -0.79900
O1775       O  0.84862566  0.59292844  0.79061800    -0.82600
C1776       C  0.85097625  0.72172997  0.76661715     0.98100
C1777       C  0.85297014  0.72573088  0.89810397     1.05600
O1778       O  0.82416186  0.64420342  0.83626151    -1.11600
O1779       O  0.83940476  0.59034586  0.89404342    -0.74100
O1780       O  0.89567416  0.64965079  0.88304778    -0.77500
O1781       O  0.81399311  0.69608919  0.77331212    -0.78200
C1782       C  0.87635688  0.61554683  0.90304667     0.97000
O1783       O  0.89203434  0.65883562  0.78165786    -0.76200
O1784       O  0.75726976  0.57440372  0.88308379    -0.81400
C1785       C  0.74496557  0.58908801  0.76705369     0.99600
C1786       C  0.74347284  0.59462521  0.90128017     1.05600
O1787       O  0.74597824  0.61799559  0.78800403    -0.77000
C1788       C  0.87815438  0.62280103  0.76991523     1.03900
C1789       C  0.75646415  0.88155355  0.71524022    -0.15500
C1790       C  0.78459419  0.87216818  0.70550472    -0.30700
H1791       H  0.75643239  0.90582892  0.69655422     0.13500
H1792       H  0.78547397  0.85002139  0.72808198     0.14100
C1793       C  0.78195355  0.86933558  0.94560951    -0.15500
C1794       C  0.75903176  0.88423014  0.93080107    -0.30700
H1795       H  0.78216832  0.84638093  0.92474128     0.13500
H1796       H  0.75963245  0.90848784  0.94951462     0.14100
C1797       C  0.89876772  0.60551531  0.93760141    -0.15500
C1798       C  0.88005019  0.57673817  0.97062217    -0.30700
H1799       H  0.93135802  0.62343090  0.93568095     0.13500
H1800       H  0.84712573  0.55918403  0.96932653     0.14100
C1801       C  0.88971780  0.58077123  0.71542859    -0.15500
C1802       C  0.89731089  0.61678740  0.72936377    -0.30700
H1803       H  0.86829222  0.55487733  0.73598893     0.13500
H1804       H  0.91665693  0.64339814  0.70922786     0.14100
C1805       C  0.88522268  0.50368006  0.70093187    -0.12400
C1806       C  0.88399376  0.52204592  0.01142131     0.09700
C1807       C  0.88228683  0.50317083  0.96911910    -0.12400
C1808       C  0.84816714  0.95271223  0.95146991    -0.12400
C1809       C  0.83453535  0.92897974  0.99226825     0.09700
C1810       C  0.84455290  0.95809416  0.71054680    -0.12400
H1811       H  0.90000394  0.51679654  0.73378457     0.13700
H1812       H  0.89459620  0.52076672  0.93751745     0.13700
H1813       H  0.84303744  0.93904981  0.91749829     0.13700
H1814       H  0.83108513  0.94189476  0.74261290     0.13700
C1815       C  0.59763884  0.69397473  0.73847412    -0.15500
C1816       C  0.59885049  0.69927059  0.69233723    -0.30700
H1817       H  0.58597756  0.66432762  0.75356363     0.13500
H1818       H  0.61091923  0.72985032  0.67966844     0.14100
C1819       C  0.61665038  0.71517400  0.94148229    -0.15500
C1820       C  0.58061133  0.68194246  0.95078630    -0.30700
H1821       H  0.64103809  0.72672406  0.96668837     0.13500
H1822       H  0.55704803  0.67146134  0.92424348     0.14100
C1823       C  0.51641793  0.59704207  0.67650729    -0.12400
C1824       C  0.52363750  0.63549754  0.00369356     0.09700
C1825       C  0.50083683  0.65305486  0.99060928    -0.12400
C1826       C  0.96806617  0.63565223  0.01119524    -0.12400
C1827       C  0.94710626  0.59334780  0.01359950     0.09700
C1828       C  0.97535852  0.57564964  0.67714170    -0.12400
H1829       H  0.53282609  0.58213434  0.68384326     0.13700
H1830       H  0.51562877  0.68327687  0.97656853     0.13700
H1831       H  0.95136361  0.65092740  0.01082119     0.13700
H1832       H  0.96022407  0.54346149  0.67966659     0.13700
C1833       C  0.69277916  0.58471281  0.71300172    -0.15500
C1834       C  0.71815807  0.57209928  0.72563856    -0.30700
H1835       H  0.68796681  0.60201989  0.73855900     0.13500
H1836       H  0.72189371  0.55199573  0.70332398     0.14100
C1837       C  0.69205977  0.59239998  0.95412695    -0.15500
C1838       C  0.71327036  0.57599638  0.93889329    -0.30700
H1839       H  0.69534852  0.61836836  0.93551224     0.13500
H1840       H  0.70854454  0.54839469  0.95440095     0.14100
C1841       C  0.66436390  0.63777452  0.68316334    -0.12400
C1842       C  0.63896994  0.59750762  0.99716445     0.09700
C1843       C  0.59663815  0.57636120  0.98971194    -0.12400
C1844       C  0.57495483  0.59627035  0.98866259    -0.12400
C1845       C  0.60606335  0.64234176  0.65881784     0.09700
C1846       C  0.64289998  0.65753162  0.68337841    -0.12400
H1847       H  0.69369104  0.65257370  0.70003601     0.13700
H1848       H  0.57985614  0.54458737  0.98303447     0.13700
H1849       H  0.54371720  0.57917384  0.97762240     0.13700
H1850       H  0.65659870  0.68581118  0.70139283     0.13700
C1851       C  0.59819580  0.89414822  0.94701602    -0.15500
C1852       C  0.58649242  0.85617973  0.93531205    -0.30700
H1853       H  0.62057736  0.91867476  0.92554312     0.13500
H1854       H  0.56395381  0.83155169  0.95658853     0.14100
C1855       C  0.59908200  0.88236684  0.69190606    -0.15500
C1856       C  0.57781204  0.85019853  0.72003524    -0.30700
H1857       H  0.63184988  0.89957903  0.69592561     0.13500
H1858       H  0.54556777  0.82999820  0.71495841     0.14100
C1859       C  0.60306076  0.97220465  0.95714761    -0.12400
C1860       C  0.59955487  0.94855826  0.99623308     0.09700
C1861       C  0.61819841  0.96275564  0.70109269    -0.12400
C1862       C  0.61734290  0.50836760  0.70039381    -0.12400
C1863       C  0.63878470  0.53123912  0.99808021     0.09700
C1864       C  0.61890799  0.51012401  0.95714414    -0.12400
H1865       H  0.59111772  0.95848987  0.92359552     0.13700
H1866       H  0.61773786  0.94647383  0.73211930     0.13700
H1867       H  0.61748166  0.52315676  0.73215378     0.13700
H1868       H  0.61957179  0.52631007  0.92587138     0.13700
C1869       C  0.86338641  0.75911358  0.92991026    -0.15500
C1870       C  0.89050999  0.76892027  0.96460880    -0.30700
H1871       H  0.84824534  0.77554813  0.92383470     0.13500
H1872       H  0.90516643  0.75159598  0.96798838     0.14100
C1873       C  0.86070645  0.74843402  0.72590717    -0.15500
C1874       C  0.89719641  0.78163558  0.71811762    -0.30700
H1875       H  0.83703771  0.73817162  0.69998036     0.13500
H1876       H  0.92056520  0.78861263  0.74396320     0.14100
C1877       C  0.97064384  0.83694248  0.95667100    -0.12400
C1878       C  0.94926913  0.83110786  0.99849222     0.09700
C1879       C  0.97167630  0.85273471  0.03796185    -0.12400
C1880       C  0.51484836  0.88039932  0.03233266    -0.12400
C1881       C  0.53534398  0.88172397  0.99141367     0.09700
C1882       C  0.51168111  0.86426127  0.95100183    -0.12400
H1883       H  0.95483256  0.82364817  0.92437831     0.13700
H1884       H  0.95644214  0.85114148  0.07011200     0.13700
H1885       H  0.53173556  0.89534942  0.06352429     0.13700
H1886       H  0.52550627  0.86744084  0.91739401     0.13700
C1887       C  0.90542378  0.87203132  0.67210614    -0.12400
C1888       C  0.87943869  0.82436707  0.99540140     0.09700
C1889       C  0.83680248  0.80243437  0.99843787    -0.12400
C1890       C  0.81450798  0.82121647  0.99489386    -0.12400
C1891       C  0.83373301  0.86325637  0.99131892     0.09700
C1892       C  0.88412013  0.89231146  0.67151653    -0.12400
H1893       H  0.93797984  0.89023165  0.67459204     0.13700
H1894       H  0.82048699  0.77017292  0.00305567     0.13700
H1895       H  0.78181124  0.80269225  0.99605569     0.13700
H1896       H  0.90139677  0.92463464  0.67381931     0.13700
loop_ 
_geom_bond_atom_site_label_1 
_geom_bond_atom_site_label_2 
_geom_bond_distance 
_geom_bond_site_symmetry_2 
_ccdc_geom_bond_type 
C1          C132   1.536       .  S
C1          C294   1.542       .  S
C1          C140   1.547       .  S
C1          C150   1.559       .  S
C2          C113   1.545       .  S
C2          C275   1.542       .  S
C2          C122   1.554       .  S
C2          C143   1.536       .  S
C3           C99   1.535       .  S
C3          C253   1.537       .  S
C3          C104   1.539       .  S
C3          C125   1.546       .  S
C4           C78   1.542   1_556  S
C4          C398   1.534       .  S
C4          C107   1.558       .  S
C4          C402   1.555       .  S
C5           C60   1.548       .  S
C5          C221   1.537       .  S
C5           C68   1.559       .  S
C5           C89   1.560       .  S
C6           C55   1.529       .  S
C6          C210   1.546       .  S
C6           C71   1.553       .  S
C6          C153   1.548       .  S
Fe7          O23   2.088       .  S
Fe7          O13   2.068       .  S
Fe7          O20   2.058       .  S
Fe7          O12   2.088       .  S
Fe7          O18   1.966       .  S
Fe8          O11   2.076       .  S
Fe8          O15   2.030       .  S
Fe8          O19   2.079       .  S
Fe8          O24   2.051       .  S
Fe8          O18   1.969       .  S
Fe9          O27   2.049       .  S
Fe9          O14   2.089       .  S
Fe9          O21   2.083       .  S
Fe9          O10   2.042       .  S
Fe9          O18   1.970       .  S
O10          C17   1.267       .  A
O11          C25   1.269       .  A
O12          C17   1.275       .  A
O13          C16   1.267       .  A
O14          C26   1.274       .  A
O15          C28   1.264       .  A
C16          O21   1.270       .  A
C16         C114   1.485       .  S
C17         C118   1.475       .  S
O19          C22   1.269       .  A
O20          C22   1.265       .  A
C22          C77   1.478       .  S
O23          C28   1.277       .  A
O24          C26   1.270       .  A
C25          O27   1.263       .  A
C25          C56   1.473       .  S
C26          C51   1.478       .  S
C28          C81   1.461       .  S
Fe29         O45   2.038       .  S
Fe29         O35   2.096       .  S
Fe29         O42   2.093       .  S
Fe29         O34   2.054       .  S
Fe29         O40   1.957       .  S
Fe30         O33   2.065       .  S
Fe30         O37   2.073       .  S
Fe30         O41   2.050       .  S
Fe30         O46   2.083       .  S
Fe30         O40   1.954       .  S
Fe31         O49   2.074       .  S
Fe31         O36   2.053       .  S
Fe31         O43   2.038       .  S
Fe31         O32   2.071       .  S
Fe31         O40   1.956       .  S
O32          C39   1.268       .  A
O33          C47   1.266       .  A
O34          C39   1.269       .  A
O35          C38   1.274       .  A
O36          C48   1.272       .  A
O37          C50   1.274       .  A
C38          O43   1.266       .  A
C38         C135   1.468       .  S
C39         C131   1.468       .  S
O41          C44   1.266       .  A
O42          C44   1.274       .  A
C44          C59   1.478       .  S
O45          C50   1.265       .  A
O46          C48   1.274       .  A
C47          O49   1.268       .  A
C47          C96   1.481       .  S
C48         C100   1.476       .  S
C50          C64   1.462       .  S
C51          C52   1.347       .  D
C51          H53   1.084       .  S
C52         C322   1.540   1_554  S
C52          H54   1.087       .  S
C55          C56   1.347       .  D
C55          H57   1.088       .  S
C56          H58   1.087       .  S
C59          C60   1.351       .  D
C59          H61   1.081       .  S
C60          H62   1.089       .  S
C63         C321   1.531       .  S
C63          C64   1.343       .  D
C63          H65   1.083       .  S
C64          H66   1.077       .  S
C67          H73   1.081       .  S
C67         C384   1.417       .  A
C67         C546   1.400   1_545  A
C68          C69   1.413       .  A
C68         C225   1.415   1_545  A
C69          H74   1.082       .  S
C69         C544   1.400   1_545  A
C70          H75   1.081       .  S
C70          C71   1.414       .  A
C70         C543   1.399       .  A
C71         C230   1.405       .  A
C72          H76   1.082       .  S
C72         C541   1.399       .  A
C72         C387   1.410   1_554  A
C77          C78   1.349       .  D
C77          H79   1.080       .  S
C78          H80   1.088       .  S
C81          C82   1.340       .  D
C81          H83   1.083       .  S
C82         C162   1.527       .  S
C82          H84   1.088       .  S
C85          H91   1.083       .  S
C85         C402   1.409   1_554  A
C85        C1038   1.403   1_455  A
C86         C162   1.546       .  S
C86          C87   1.407       .  A
C86         C243   1.410       .  A
C87          H92   1.083       .  S
C87        C1036   1.386   1_455  A
C88          H93   1.074       .  S
C88          C89   1.412       .  A
C88        C1035   1.386       .  A
C89         C248   1.417       .  A
C90          H94   1.080       .  S
C90        C1033   1.405       .  A
C90         C405   1.415       .  A
C95         C319   1.543       .  S
C95          C96   1.352       .  D
C95          H97   1.087       .  S
C96          H98   1.083       .  S
C99         C100   1.345       .  D
C99         H101   1.089       .  S
C100        H102   1.084       .  S
C103        H109   1.083       .  S
C103        C108   1.391   1_554  A
C103        C420   1.408       .  A
C104        C105   1.408       .  A
C104        C261   1.409       .  A
C105        H110   1.081       .  S
C105        C106   1.399       .  A
C106        H111   1.081       .  S
C106        C265   1.414       .  A
C107        C108   1.412       .  A
C107        C422   1.415       .  A
C108        H112   1.081       .  S
C113        C114   1.352       .  D
C113        H115   1.087       .  S
C114        H116   1.087       .  S
C117        C318   1.533   1_554  S
C117        C118   1.352       .  D
C117        H119   1.087       .  S
C118        H120   1.085       .  S
C121        H127   1.083       .  S
C121        C122   1.408       .  A
C121        C600   1.401       .  A
C122        C281   1.414       .  A
C123        H128   1.082       .  S
C123        C438   1.412   1_554  A
C123        C598   1.401       .  A
C124        H129   1.081       .  S
C124        C597   1.395   1_545  A
C124        C441   1.411       .  A
C125        C126   1.408       .  A
C125        C282   1.411       .  A
C126        H130   1.081       .  S
C126        C595   1.394   1_545  A
C131        C132   1.341       .  D
C131        H133   1.082       .  S
C132        H134   1.089       .  S
C135        C136   1.349       .  D
C135        H137   1.078       .  S
C136        C317   1.543       .  S
C136        H138   1.085       .  S
C139        H145   1.082       .  S
C139        C140   1.413       .  A
C139       C1092   1.390       .  A
C140        C141   1.412       .  A
C141        H146   1.082       .  S
C141       C1090   1.398       .  A
C142        H147   1.083       .  S
C142        C143   1.407       .  A
C142       C1089   1.391   1_455  A
C143        C144   1.410       .  A
C144        H148   1.080       .  S
C144       C1087   1.397   1_455  A
C149        H155   1.079       .  S
C149        C154   1.408       .  A
C149        C466   1.419       .  A
C150        C151   1.409       .  A
C150        C307   1.418       .  A
C151        H156   1.073       .  S
C151        C152   1.390       .  A
C152        H157   1.082       .  S
C152        C153   1.409       .  A
C153        C312   1.411       .  A
C154        H158   1.081       .  S
C154        C469   1.411       .  A
C159        C290   1.542       .  S
C159        C452   1.532       .  S
C159        C298   1.546       .  S
C159        C308   1.548       .  S
C160        C271   1.540       .  S
C160        C433   1.542       .  S
C160        C280   1.549       .  S
C160        C301   1.557       .  S
C161        C411   1.543       .  S
C161        C257   1.531       .  S
C161        C262   1.550       .  S
C161        C283   1.551       .  S
C162        C236   1.539       .  S
C162        C265   1.555       .  S
C163        C218   1.547       .  S
C163        C379   1.525       .  S
C163        C226   1.547       .  S
C163        C247   1.549       .  S
C164        C368   1.546       .  S
C164        C213   1.533       .  S
C164        C229   1.553       .  S
C164        C311   1.546       .  S
Fe165       O181   2.117       .  S
Fe165       O171   2.045       .  S
Fe165       O178   2.045       .  S
Fe165       O170   2.121       .  S
Fe165       O176   1.953       .  S
Fe166       O169   2.089       .  S
Fe166       O173   2.032       .  S
Fe166       O177   2.086       .  S
Fe166       O182   2.052       .  S
Fe166       O176   1.946       .  S
Fe167       O185   2.036       .  S
Fe167       O172   2.098       .  S
Fe167       O179   2.094       .  S
Fe167       O168   2.020       .  S
Fe167       O176   1.953       .  S
O168        C175   1.260       .  A
O169        C183   1.273       .  A
O170        C175   1.281       .  A
O171        C174   1.263       .  A
O172        C184   1.276       .  A
O173        C186   1.268       .  A
C174        O179   1.275       .  A
C174        C272   1.478       .  S
C175        C276   1.473       .  S
O177        C180   1.269       .  A
O178        C180   1.264       .  A
C180        C235   1.473       .  S
O181        C186   1.283       .  A
O182        C184   1.272       .  A
C183        O185   1.260       .  A
C183        C214   1.473       .  S
C184        C209   1.484       .  S
C186        C239   1.471       .  S
Fe187       O203   2.044       .  S
Fe187       O193   2.094       .  S
Fe187       O200   2.093       .  S
Fe187       O192   2.074       .  S
Fe187       O198   1.950       .  S
Fe188       O191   2.057       .  S
Fe188       O195   2.078       .  S
Fe188       O199   2.046       .  S
Fe188       O204   2.083       .  S
Fe188       O198   1.955       .  S
Fe189       O207   2.075       .  S
Fe189       O194   2.049       .  S
Fe189       O201   2.038       .  S
Fe189       O190   2.082       .  S
Fe189       O198   1.945       .  S
O190        C197   1.271       .  A
O191        C205   1.264       .  A
O192        C197   1.274       .  A
O193        C196   1.273       .  A
O194        C206   1.271       .  A
O195        C208   1.272       .  A
C196        O201   1.264       .  A
C196        C293   1.467       .  S
C197        C289   1.479       .  S
O199        C202   1.265       .  A
O200        C202   1.273       .  A
C202        C217   1.471       .  S
O203        C208   1.268       .  A
O204        C206   1.274       .  A
C205        O207   1.270       .  A
C205        C254   1.480       .  S
C206        C258   1.471       .  S
C208        C222   1.463       .  S
C209        C210   1.351       .  D
C209        H211   1.083       .  S
C210        H212   1.083       .  S
C213        C214   1.342       .  D
C213        H215   1.087       .  S
C214        H216   1.083       .  S
C217        C218   1.346       .  D
C217        H219   1.083       .  S
C218        H220   1.090       .  S
C221        C222   1.346       .  D
C221        H223   1.085       .  S
C222        H224   1.076       .  S
C225        H231   1.082   1_565  S
C225        C704   1.400       .  A
C226        C383   1.414       .  A
C226        C227   1.410       .  A
C227        H232   1.081       .  S
C227        C702   1.397   1_545  A
C228        H233   1.083       .  S
C228        C701   1.401       .  A
C228        C229   1.411       .  A
C229        C388   1.410       .  A
C230        H234   1.083       .  S
C230        C699   1.395       .  A
C235        C236   1.344       .  D
C235        H237   1.083       .  S
C236        H238   1.088       .  S
C239        C240   1.346       .  D
C239        H241   1.086       .  S
C240        C320   1.533       .  S
C240        H242   1.087       .  S
C243        H249   1.080       .  S
C243       C1196   1.401   1_455  A
C244        C320   1.550       .  S
C244        C401   1.415       .  A
C244        C245   1.409       .  A
C245        H250   1.083       .  S
C245       C1194   1.392   1_455  A
C246        H251   1.080       .  S
C246       C1193   1.388       .  A
C246        C247   1.407       .  A
C247        C406   1.414       .  A
C248        H252   1.077       .  S
C248       C1191   1.403       .  A
C253        C254   1.346       .  D
C253        H255   1.086       .  S
C254        H256   1.084       .  S
C257        C258   1.346       .  D
C257        H259   1.089       .  S
C258        H260   1.084       .  S
C261        H267   1.083       .  S
C261        C266   1.389       .  A
C262        C419   1.413       .  A
C262        C263   1.412       .  A
C263        H268   1.080       .  S
C263        C264   1.404       .  A
C264        H269   1.083       .  S
C264        C423   1.412       .  A
C265        C266   1.411       .  A
C266        H270   1.079       .  S
C271        C272   1.343       .  D
C271        H273   1.086       .  S
C272        H274   1.087       .  S
C275        C276   1.338       .  D
C275        H277   1.088       .  S
C276        H278   1.088       .  S
C279        H285   1.083       .  S
C279        C280   1.410       .  A
C279        C758   1.399       .  A
C280        C439   1.410       .  A
C281        H286   1.080       .  S
C281        C756   1.404       .  A
C282        H287   1.083       .  S
C282        C755   1.399   1_545  A
C283        C440   1.408       .  A
C283        C284   1.411       .  A
C284        H288   1.082       .  S
C284        C753   1.401   1_545  A
C289        C290   1.343       .  D
C289        H291   1.082       .  S
C290        H292   1.088       .  S
C293        C294   1.349       .  D
C293        H295   1.080       .  S
C294        H296   1.085       .  S
C297        H303   1.083       .  S
C297        C298   1.413       .  A
C297       C1250   1.400       .  A
C298        C299   1.411       .  A
C299        H304   1.077       .  S
C299       C1248   1.390       .  A
C300        H305   1.082       .  S
C300       C1247   1.406   1_455  A
C300        C301   1.411       .  A
C301        C302   1.414       .  A
C302        H306   1.080       .  S
C302       C1245   1.403   1_455  A
C307        H313   1.079       .  S
C307        C312   1.402       .  A
C308        C465   1.416       .  A
C308        C309   1.408       .  A
C309        H314   1.081       .  S
C309        C310   1.391       .  A
C310        H315   1.083       .  S
C310        C311   1.411       .  A
C311        C470   1.410       .  A
C312        H316   1.080       .  S
C317        C448   1.539   1_554  S
C317        C456   1.555   1_554  S
C317        C466   1.565   1_554  S
C318        C429   1.538       .  S
C318        C438   1.542       .  S
C318        C459   1.535       .  S
C319        C415   1.540   1_554  S
C319        C420   1.551       .  S
C319        C441   1.550       .  S
C320        C394   1.539       .  S
C320        C423   1.556       .  S
C321        C376   1.543   1_554  S
C321        C384   1.555       .  S
C321        C405   1.561       .  S
C322        C371   1.541       .  S
C322        C387   1.547       .  S
C322        C469   1.549       .  S
Fe323       O339   2.081       .  S
Fe323       O329   2.056       .  S
Fe323       O336   2.048       .  S
Fe323       O328   2.080       .  S
Fe323       O334   1.965       .  S
Fe324       O327   2.074       .  S
Fe324       O331   2.045       .  S
Fe324       O335   2.096       .  S
Fe324       O340   2.067       .  S
Fe324       O334   1.967       .  S
Fe325       O343   2.071       .  S
Fe325       O330   2.085       .  S
Fe325       O337   2.080       .  S
Fe325       O326   2.074       .  S
Fe325       O334   1.959       .  S
O326        C333   1.272       .  A
O327        C341   1.269       .  A
O328        C333   1.270       .  A
O329        C332   1.268       .  A
O330        C342   1.275       .  A
O331        C344   1.264       .  A
C332        O337   1.274       .  A
C332        C430   1.477       .  S
C333        C434   1.489       .  S
O335        C338   1.273       .  A
O336        C338   1.266       .  A
C338        C393   1.472       .  S
O339        C344   1.271       .  A
O340        C342   1.274       .  A
C341        O343   1.267       .  A
C341        C372   1.485       .  S
C342        C367   1.478       .  S
C344        C397   1.461       .  S
Fe345       O361   2.040       .  S
Fe345       O351   2.079       .  S
Fe345       O358   2.078       .  S
Fe345       O350   2.053       .  S
Fe345       O356   1.950       .  S
Fe346       O349   2.071       .  S
Fe346       O353   2.081       .  S
Fe346       O357   2.059       .  S
Fe346       O362   2.095       .  S
Fe346       O356   1.945       .  S
Fe347       O365   2.064       .  S
Fe347       O352   2.059       .  S
Fe347       O359   2.051       .  S
Fe347       O348   2.085       .  S
Fe347       O356   1.949       .  S
O348        C355   1.271       .  A
O349        C363   1.267       .  A
O350        C355   1.270       .  A
O351        C354   1.271       .  A
O352        C364   1.275       .  A
O353        C366   1.275       .  A
C354        O359   1.266       .  A
C354        C451   1.463       .  S
C355        C447   1.473       .  S
O357        C360   1.269       .  A
O358        C360   1.270       .  A
C360        C375   1.472       .  S
O361        C366   1.265       .  A
O362        C364   1.277       .  A
C363        O365   1.267       .  A
C363        C412   1.482       .  S
C364        C416   1.481       .  S
C366        C380   1.466       .  S
C367        C368   1.351       .  D
C367        H369   1.082       .  S
C368        H370   1.088       .  S
C371        C372   1.351       .  D
C371        H373   1.087       .  S
C372        H374   1.084       .  S
C375        C376   1.344       .  D
C375        H377   1.081       .  S
C376        H378   1.089       .  S
C379        C380   1.343       .  D
C379        H381   1.085       .  S
C380        H382   1.085       .  S
C383        H389   1.081       .  S
C383        C862   1.394   1_545  A
C384        C385   1.409   1_554  A
C385        H390   1.082       .  S
C385        C860   1.397   1_545  A
C386        H391   1.082       .  S
C386        C859   1.398       .  A
C386        C387   1.407       .  A
C388        H392   1.080       .  S
C388        C857   1.396       .  A
C393        C394   1.341       .  D
C393        H395   1.085       .  S
C394        H396   1.090       .  S
C397        C398   1.345       .  D
C397        H399   1.085       .  S
C398        H400   1.088       .  S
C401        H407   1.078       .  S
C401       C1354   1.404   1_455  A
C402        C403   1.416   1_455  A
C403        H408   1.081   1_655  S
C403       C1352   1.394       .  A
C404        H409   1.077       .  S
C404       C1351   1.392       .  A
C404        C405   1.414   1_556  A
C406        H410   1.078       .  S
C406       C1349   1.402       .  A
C411        C412   1.352       .  D
C411        H413   1.084       .  S
C412        H414   1.082       .  S
C415        C416   1.347       .  D
C415        H417   1.087       .  S
C416        H418   1.084       .  S
C419        H425   1.082       .  S
C419        C424   1.394       .  A
C420        C421   1.413       .  A
C421        H426   1.080       .  S
C421        C422   1.405   1_554  A
C422        H427   1.078       .  S
C423        C424   1.410       .  A
C424        H428   1.080       .  S
C429        C430   1.347       .  D
C429        H431   1.086       .  S
C430        H432   1.085       .  S
C433        C434   1.348       .  D
C433        H435   1.088       .  S
C434        H436   1.085       .  S
C437        H443   1.082       .  S
C437        C438   1.408       .  A
C437        C916   1.394       .  A
C439        H444   1.082       .  S
C439        C914   1.399       .  A
C440        H445   1.083       .  S
C440        C913   1.396   1_545  A
C441        C442   1.410   1_554  A
C442        H446   1.083       .  S
C442        C911   1.401   1_545  A
C447        C448   1.343       .  D
C447        H449   1.082       .  S
C448        H450   1.089       .  S
C451        C452   1.346       .  D
C451        H453   1.085       .  S
C452        H454   1.085       .  S
C455        H461   1.082       .  S
C455        C456   1.415       .  A
C455       C1408   1.396       .  A
C456        C457   1.412   1_556  A
C457        H462   1.082       .  S
C457       C1406   1.400       .  A
C458        H463   1.082       .  S
C458       C1405   1.393   1_455  A
C458        C459   1.408   1_554  A
C459        C460   1.407       .  A
C460        H464   1.083       .  S
C460       C1403   1.395   1_455  A
C465        H471   1.081       .  S
C465        C470   1.401       .  A
C466        C467   1.412       .  A
C467        H472   1.074       .  S
C467        C468   1.389       .  A
C468        H473   1.084       .  S
C468        C469   1.407       .  A
C470        H474   1.080       .  S
C475        C606   1.545       .  S
C475        C768   1.545       .  S
C475        C614   1.544       .  S
C475        C624   1.553       .  S
C476        C587   1.531       .  S
C476        C749   1.534       .  S
C476        C596   1.541       .  S
C476        C617   1.540       .  S
C477        C727   1.546       .  S
C477        C573   1.550       .  S
C477        C578   1.554       .  S
C477        C599   1.561       .  S
C478        C552   1.532   1_556  S
C478        C872   1.534       .  S
C478        C876   1.565   1_556  S
C478        C581   1.562   1_556  S
C479        C534   1.557       .  S
C479        C695   1.523       .  S
C479        C542   1.553       .  S
C479        C563   1.563       .  S
C480        C684   1.538       .  S
C480        C529   1.543       .  S
C480        C545   1.554       .  S
C480        C627   1.555       .  S
Fe481       O497   2.072       .  S
Fe481       O487   2.041       .  S
Fe481       O494   2.032       .  S
Fe481       O486   2.082       .  S
Fe481       O492   1.992       .  S
Fe482       O485   2.076       .  S
Fe482       O489   2.065       .  S
Fe482       O493   2.083       .  S
Fe482       O498   2.085       .  S
Fe482       O492   1.979       .  S
Fe483       O501   2.071       .  S
Fe483       O488   2.073       .  S
Fe483       O495   2.066       .  S
Fe483       O484   2.070       .  S
Fe483       O492   1.978       .  S
O484        C491   1.273       .  A
O485        C499   1.270       .  A
O486        C491   1.273       .  A
O487        C490   1.259       .  A
O488        C500   1.268       .  A
O489        C502   1.270       .  A
C490        O495   1.268       .  A
C490        C588   1.470       .  S
C491        C592   1.485       .  S
O493        C496   1.272       .  A
O494        C496   1.259       .  A
C496        C551   1.461       .  S
O497        C502   1.271       .  A
O498        C500   1.274       .  A
C499        O501   1.269       .  A
C499        C530   1.483       .  S
C500        C525   1.488       .  S
C502        C555   1.471       .  S
Fe503       O519   2.043       .  S
Fe503       O509   2.102       .  S
Fe503       O516   2.091       .  S
Fe503       O508   2.085       .  S
Fe503       O514   1.939       .  S
Fe504       O507   2.071       .  S
Fe504       O511   2.124       .  S
Fe504       O515   2.067       .  S
Fe504       O520   2.130       .  S
Fe504       O514   1.940       .  S
Fe505       O523   2.071       .  S
Fe505       O510   2.042       .  S
Fe505       O517   2.054       .  S
Fe505       O506   2.068       .  S
Fe505       O514   1.944       .  S
O506        C513   1.264       .  A
O507        C521   1.268       .  A
O508        C513   1.272       .  A
O509        C512   1.278       .  A
O510        C522   1.271       .  A
O511        C524   1.284       .  A
C512        O517   1.272       .  A
C512        C609   1.475       .  S
C513        C605   1.476       .  S
O515        C518   1.270       .  A
O516        C518   1.274       .  A
C518        C533   1.483       .  S
O519        C524   1.268       .  A
O520        C522   1.288       .  A
C521        O523   1.261       .  A
C521        C570   1.474       .  S
C522        C574   1.475       .  S
C524        C538   1.482       .  S
C525        C526   1.347       .  D
C525        H527   1.083       .  S
C526        C796   1.545       .  S
C526        H528   1.088       .  S
C529        C530   1.351       .  D
C529        H531   1.087       .  S
C530        H532   1.084       .  S
C533        C534   1.347       .  D
C533        H535   1.083       .  S
C534        H536   1.089       .  S
C537        C795   1.548       .  S
C537        C538   1.348       .  D
C537        H539   1.084       .  S
C538        H540   1.083       .  S
C541        H547   1.081       .  S
C541        C858   1.413       .  A
C542        C699   1.417       .  A
C542        C543   1.409       .  A
C543        H548   1.082       .  S
C544        H549   1.081       .  S
C544        C545   1.410       .  A
C545        C704   1.410       .  A
C546        H550   1.083       .  S
C546        C861   1.406       .  A
C551        C552   1.334       .  D
C551        H553   1.086       .  S
C552        H554   1.090       .  S
C555        C556   1.351       .  D
C555        H557   1.081       .  S
C556        C636   1.546       .  S
C556        H558   1.086       .  S
C559        H565   1.078       .  S
C559        C876   1.413       .  A
C559       C1512   1.407   1_455  A
C560        C636   1.558       .  S
C560        C717   1.416       .  A
C560        C561   1.410       .  A
C561        H566   1.083       .  S
C561       C1510   1.398   1_455  A
C562        H567   1.077       .  S
C562       C1509   1.392       .  A
C562        C563   1.411       .  A
C563        C722   1.418       .  A
C564        H568   1.079       .  S
C564       C1507   1.407       .  A
C564        C879   1.416       .  A
C569        C793   1.546       .  S
C569        C570   1.340       .  D
C569        H571   1.090       .  S
C570        H572   1.085       .  S
C573        C574   1.348       .  D
C573        H575   1.086       .  S
C574        H576   1.085       .  S
C577        H583   1.080       .  S
C577        C894   1.407       .  A
C577        C582   1.398       .  A
C578        C735   1.409       .  A
C578        C579   1.411       .  A
C579        H584   1.081       .  S
C579        C580   1.406       .  A
C580        H585   1.080       .  S
C580        C739   1.420       .  A
C581        C896   1.409   1_554  A
C581        C582   1.418       .  A
C582        H586   1.078       .  S
C587        C588   1.341       .  D
C587        H589   1.088       .  S
C588        H590   1.086       .  S
C591        C792   1.539   1_554  S
C591        C592   1.350       .  D
C591        H593   1.088       .  S
C592        H594   1.085       .  S
C595        H601   1.082       .  S
C595        C596   1.412       .  A
C596        C755   1.409       .  A
C597        H602   1.082       .  S
C597        C912   1.410       .  A
C598        H603   1.078       .  S
C598        C915   1.409       .  A
C599        C756   1.413       .  A
C599        C600   1.414       .  A
C600        H604   1.083       .  S
C605        C606   1.342       .  D
C605        H607   1.084       .  S
C606        H608   1.088       .  S
C609        C610   1.350       .  D
C609        H611   1.079       .  S
C610        C791   1.547   1_554  S
C610        H612   1.085       .  S
C613        H619   1.083       .  S
C613        C614   1.414       .  A
C613       C1566   1.399       .  A
C614        C615   1.410       .  A
C615        H620   1.078       .  S
C615       C1564   1.390       .  A
C616        H621   1.082       .  S
C616       C1563   1.396   1_455  A
C616        C617   1.408       .  A
C617        C618   1.409       .  A
C618        H622   1.083       .  S
C618       C1561   1.398   1_455  A
C623        H629   1.079       .  S
C623        C940   1.418       .  A
C623        C628   1.405       .  A
C624        C781   1.415       .  A
C624        C625   1.409       .  A
C625        H630   1.083       .  S
C625        C626   1.397       .  A
C626        H631   1.083       .  S
C626        C627   1.413       .  A
C627        C786   1.412       .  A
C628        H632   1.081       .  S
C628        C943   1.412       .  A
C633        C764   1.544       .  S
C633        C926   1.551       .  S
C633        C772   1.558       .  S
C633        C782   1.553       .  S
C634        C745   1.544       .  S
C634        C907   1.535       .  S
C634        C754   1.550       .  S
C634        C775   1.543       .  S
C635        C885   1.552       .  S
C635        C731   1.536       .  S
C635        C736   1.554       .  S
C635        C757   1.556       .  S
C636        C710   1.539       .  S
C636        C739   1.570       .  S
C637        C692   1.541       .  S
C637        C853   1.538       .  S
C637        C700   1.551       .  S
C637        C721   1.548       .  S
C638        C842   1.538       .  S
C638        C687   1.534       .  S
C638        C703   1.542       .  S
C638        C785   1.540       .  S
Fe639       O655   2.087       .  S
Fe639       O645   2.073       .  S
Fe639       O652   2.065       .  S
Fe639       O644   2.093       .  S
Fe639       O650   1.966       .  S
Fe640       O643   2.071       .  S
Fe640       O647   2.047       .  S
Fe640       O651   2.079       .  S
Fe640       O656   2.051       .  S
Fe640       O650   1.976       .  S
Fe641       O659   2.050       .  S
Fe641       O646   2.086       .  S
Fe641       O653   2.073       .  S
Fe641       O642   2.044       .  S
Fe641       O650   1.980       .  S
O642        C649   1.266       .  A
O643        C657   1.271       .  A
O644        C649   1.274       .  A
O645        C648   1.270       .  A
O646        C658   1.272       .  A
O647        C660   1.265       .  A
C648        O653   1.270       .  A
C648        C746   1.484       .  S
C649        C750   1.478       .  S
O651        C654   1.269       .  A
O652        C654   1.270       .  A
C654        C709   1.484       .  S
O655        C660   1.276       .  A
O656        C658   1.269       .  A
C657        O659   1.262       .  A
C657        C688   1.476       .  S
C658        C683   1.480       .  S
C660        C713   1.477       .  S
Fe661       O677   2.021       .  S
Fe661       O667   2.095       .  S
Fe661       O674   2.089       .  S
Fe661       O666   2.024       .  S
Fe661       O672   1.957       .  S
Fe662       O665   2.050       .  S
Fe662       O669   2.091       .  S
Fe662       O673   2.052       .  S
Fe662       O678   2.087       .  S
Fe662       O672   1.946       .  S
Fe663       O681   2.111       .  S
Fe663       O668   2.049       .  S
Fe663       O675   2.047       .  S
Fe663       O664   2.140       .  S
Fe663       O672   1.950       .  S
O664        C671   1.287       .  A
O665        C679   1.267       .  A
O666        C671   1.263       .  A
O667        C670   1.270       .  A
O668        C680   1.269       .  A
O669        C682   1.276       .  A
C670        O675   1.260       .  A
C670        C767   1.470       .  S
C671        C763   1.480       .  S
O673        C676   1.267       .  A
O674        C676   1.271       .  A
C676        C691   1.476       .  S
O677        C682   1.262       .  A
O678        C680   1.273       .  A
C679        O681   1.279       .  A
C679        C728   1.483       .  S
C680        C732   1.474       .  S
C682        C696   1.458       .  S
C683        C684   1.350       .  D
C683        H685   1.084       .  S
C684        H686   1.087       .  S
C687        C688   1.343       .  D
C687        H689   1.088       .  S
C688        H690   1.084       .  S
C691        C692   1.348       .  D
C691        H693   1.082       .  S
C692        H694   1.088       .  S
C695        C696   1.339       .  D
C695        H697   1.086       .  S
C696        H698   1.084       .  S
C699        H705   1.081       .  S
C700        C857   1.414       .  A
C700        C701   1.412       .  A
C701        H706   1.083       .  S
C702        H707   1.082       .  S
C702        C703   1.410       .  A
C703        C862   1.406       .  A
C704        H708   1.083       .  S
C709        C710   1.346       .  D
C709        H711   1.082       .  S
C710        H712   1.089       .  S
C713        C714   1.342       .  D
C713        H715   1.083       .  S
C714        C794   1.537       .  S
C714        H716   1.087       .  S
C717        H723   1.082       .  S
C717       C1670   1.401   1_455  A
C718        C794   1.542       .  S
C718        C875   1.409       .  A
C718        C719   1.407       .  A
C719        H724   1.084       .  S
C719       C1668   1.377   1_455  A
C720        H725   1.083       .  S
C720       C1667   1.395       .  A
C720        C721   1.410       .  A
C721        C880   1.412       .  A
C722        H726   1.074       .  S
C722       C1665   1.403       .  A
C727        C728   1.347       .  D
C727        H729   1.088       .  S
C728        H730   1.087       .  S
C731        C732   1.352       .  D
C731        H733   1.088       .  S
C732        H734   1.087       .  S
C735        H741   1.079       .  S
C735        C740   1.399       .  A
C736        C893   1.411       .  A
C736        C737   1.415       .  A
C737        H742   1.079       .  S
C737        C738   1.401       .  A
C738        H743   1.083       .  S
C738        C897   1.408       .  A
C739        C740   1.412       .  A
C740        H744   1.073       .  S
C745        C746   1.352       .  D
C745        H747   1.084       .  S
C746        H748   1.085       .  S
C749        C750   1.354       .  D
C749        H751   1.087       .  S
C750        H752   1.086       .  S
C753        H759   1.081       .  S
C753        C754   1.413       .  A
C754        C913   1.412       .  A
C755        H760   1.083       .  S
C756        H761   1.080       .  S
C757        C914   1.411       .  A
C757        C758   1.415       .  A
C758        H762   1.082       .  S
C763        C764   1.340       .  D
C763        H765   1.087       .  S
C764        H766   1.087       .  S
C767        C768   1.346       .  D
C767        H769   1.085       .  S
C768        H770   1.086       .  S
C771        H777   1.081       .  S
C771        C772   1.413       .  A
C771       C1724   1.402       .  A
C772        C773   1.414       .  A
C773        H778   1.083       .  S
C773       C1722   1.397       .  A
C774        H779   1.080       .  S
C774       C1721   1.398   1_455  A
C774        C775   1.411       .  A
C775        C776   1.407       .  A
C776        H780   1.082       .  S
C776       C1719   1.397   1_455  A
C781        H787   1.080       .  S
C781        C786   1.405       .  A
C782        C939   1.419       .  A
C782        C783   1.410       .  A
C783        H788   1.077       .  S
C783        C784   1.383       .  A
C784        H789   1.084       .  S
C784        C785   1.407       .  A
C785        C944   1.408       .  A
C786        H790   1.081       .  S
C791        C922   1.542       .  S
C791        C930   1.558       .  S
C791        C940   1.553   1_556  S
C792        C903   1.536       .  S
C792        C912   1.545   1_556  S
C792        C933   1.545       .  S
C793        C889   1.528   1_554  S
C793        C894   1.547       .  S
C793        C915   1.552       .  S
C794        C868   1.537       .  S
C794        C897   1.550       .  S
C795        C850   1.546   1_554  S
C795        C858   1.554       .  S
C795        C879   1.561       .  S
C796        C845   1.534   1_554  S
C796        C861   1.546       .  S
C796        C943   1.544       .  S
Fe797       O813   2.072       .  S
Fe797       O803   2.072       .  S
Fe797       O810   2.064       .  S
Fe797       O802   2.072       .  S
Fe797       O808   1.979       .  S
Fe798       O801   2.045       .  S
Fe798       O805   2.066       .  S
Fe798       O809   2.046       .  S
Fe798       O814   2.053       .  S
Fe798       O808   1.975       .  S
Fe799       O817   2.072       .  S
Fe799       O804   2.076       .  S
Fe799       O811   2.067       .  S
Fe799       O800   2.060       .  S
Fe799       O808   1.988       .  S
O800        C807   1.267       .  A
O801        C815   1.267       .  A
O802        C807   1.268       .  A
O803        C806   1.271       .  A
O804        C816   1.268       .  A
O805        C818   1.267       .  A
C806        O811   1.270       .  A
C806        C904   1.478       .  S
C807        C908   1.480       .  S
O809        C812   1.264       .  A
O810        C812   1.272       .  A
C812        C867   1.466       .  S
O813        C818   1.268       .  A
O814        C816   1.267       .  A
C815        O817   1.268       .  A
C815        C846   1.475       .  S
C816        C841   1.483       .  S
C818        C871   1.480       .  S
Fe819       O835   2.045       .  S
Fe819       O825   2.097       .  S
Fe819       O832   2.096       .  S
Fe819       O824   2.053       .  S
Fe819       O830   1.958       .  S
Fe820       O823   2.061       .  S
Fe820       O827   2.081       .  S
Fe820       O831   2.050       .  S
Fe820       O836   2.065       .  S
Fe820       O830   1.955       .  S
Fe821       O839   2.086       .  S
Fe821       O826   2.042       .  S
Fe821       O833   2.051       .  S
Fe821       O822   2.102       .  S
Fe821       O830   1.957       .  S
O822        C829   1.276       .  A
O823        C837   1.270       .  A
O824        C829   1.265       .  A
O825        C828   1.275       .  A
O826        C838   1.268       .  A
O827        C840   1.270       .  A
C828        O833   1.267       .  A
C828        C925   1.480       .  S
C829        C921   1.482       .  S
O831        C834   1.268       .  A
O832        C834   1.275       .  A
C834        C849   1.475       .  S
O835        C840   1.263       .  A
O836        C838   1.268       .  A
C837        O839   1.272       .  A
C837        C886   1.471       .  S
C838        C890   1.455       .  S
C840        C854   1.460       .  S
C841        C842   1.350       .  D
C841        H843   1.084       .  S
C842        H844   1.087       .  S
C845        C846   1.347       .  D
C845        H847   1.088       .  S
C846        H848   1.084       .  S
C849        C850   1.352       .  D
C849        H851   1.083       .  S
C850        H852   1.089       .  S
C853        C854   1.349       .  D
C853        H855   1.088       .  S
C854        H856   1.084       .  S
C857        H863   1.079       .  S
C858        C859   1.414   1_554  A
C859        H864   1.081       .  S
C860        H865   1.082       .  S
C860        C861   1.413   1_556  A
C862        H866   1.083       .  S
C867        C868   1.340       .  D
C867        H869   1.081       .  S
C868        H870   1.089       .  S
C871        C872   1.352       .  D
C871        H873   1.087       .  S
C872        H874   1.087       .  S
C875        H881   1.080       .  S
C875       C1828   1.406   1_455  A
C876        C877   1.414       .  A
C877        H882   1.083       .  S
C877       C1826   1.406   1_455  A
C878        H883   1.080       .  S
C878       C1825   1.395       .  A
C878        C879   1.409   1_556  A
C880        H884   1.081       .  S
C880       C1823   1.403       .  A
C885        C886   1.343       .  D
C885        H887   1.090       .  S
C886        H888   1.084       .  S
C889        C890   1.346       .  D
C889        H891   1.089       .  S
C890        H892   1.087       .  S
C893        H899   1.074       .  S
C893        C898   1.395       .  A
C894        C895   1.414   1_554  A
C895        H900   1.081       .  S
C895        C896   1.403       .  A
C896        H901   1.083       .  S
C897        C898   1.411       .  A
C898        H902   1.078       .  S
C903        C904   1.350       .  D
C903        H905   1.087       .  S
C904        H906   1.087       .  S
C907        C908   1.349       .  D
C907        H909   1.088       .  S
C908        H910   1.085       .  S
C911        H917   1.083       .  S
C911        C912   1.412   1_556  A
C913        H918   1.080       .  S
C914        H919   1.073       .  S
C915        C916   1.414   1_554  A
C916        H920   1.082       .  S
C921        C922   1.345       .  D
C921        H923   1.087       .  S
C922        H924   1.087       .  S
C925        C926   1.348       .  D
C925        H927   1.075       .  S
C926        H928   1.087       .  S
C929        H935   1.081       .  S
C929        C930   1.411       .  A
C929       C1882   1.398       .  A
C930        C931   1.416   1_556  A
C931        H936   1.083       .  S
C931       C1880   1.401       .  A
C932        H937   1.083       .  S
C932       C1879   1.401   1_455  A
C932        C933   1.411   1_554  A
C933        C934   1.410       .  A
C934        H938   1.081       .  S
C934       C1877   1.395   1_455  A
C939        H945   1.077       .  S
C939        C944   1.402       .  A
C940        C941   1.409       .  A
C941        H946   1.073   1_554  S
C941        C942   1.383       .  A
C942        H947   1.084       .  S
C942        C943   1.405       .  A
C944        H948   1.081       .  S
C949       C1080   1.534       .  S
C949       C1242   1.550       .  S
C949       C1088   1.549       .  S
C949       C1098   1.552       .  S
C950       C1061   1.534       .  S
C950       C1223   1.531       .  S
C950       C1070   1.540       .  S
C950       C1091   1.537       .  S
C951       C1201   1.542       .  S
C951       C1047   1.539       .  S
C951       C1052   1.545       .  S
C951       C1073   1.549       .  S
C952       C1026   1.527   1_556  S
C952       C1346   1.524       .  S
C952       C1350   1.549   1_556  S
C952       C1055   1.548       .  S
C953       C1008   1.538       .  S
C953       C1169   1.529       .  S
C953       C1016   1.544       .  S
C953       C1037   1.551       .  S
C954       C1158   1.540       .  S
C954       C1003   1.534       .  S
C954       C1019   1.548       .  S
C954       C1101   1.543       .  S
Fe955       O971   2.083       .  S
Fe955       O961   2.051       .  S
Fe955       O968   2.043       .  S
Fe955       O960   2.094       .  S
Fe955       O966   1.958       .  S
Fe956       O959   2.077       .  S
Fe956       O963   2.026       .  S
Fe956       O967   2.084       .  S
Fe956       O972   2.055       .  S
Fe956       O966   1.958       .  S
Fe957       O975   2.049       .  S
Fe957       O962   2.091       .  S
Fe957       O969   2.079       .  S
Fe957       O958   2.046       .  S
Fe957       O966   1.955       .  S
O958        C965   1.269       .  A
O959        C973   1.271       .  A
O960        C965   1.273       .  A
O961        C964   1.266       .  A
O962        C974   1.274       .  A
O963        C976   1.261       .  A
C964        O969   1.272       .  A
C964       C1062   1.472       .  S
C965       C1066   1.482       .  S
O967        C970   1.271       .  A
O968        C970   1.267       .  A
C970       C1025   1.461       .  S
O971        C976   1.272       .  A
O972        C974   1.270       .  A
C973        O975   1.263       .  A
C973       C1004   1.474       .  S
C974        C999   1.480       .  S
C976       C1029   1.459       .  S
Fe977       O993   2.024       .  S
Fe977       O983   2.090       .  S
Fe977       O990   2.088       .  S
Fe977       O982   2.040       .  S
Fe977       O988   1.963       .  S
Fe978       O981   2.045       .  S
Fe978       O985   2.079       .  S
Fe978       O989   2.035       .  S
Fe978       O994   2.084       .  S
Fe978       O988   1.958       .  S
Fe979       O997   2.110       .  S
Fe979       O984   2.047       .  S
Fe979       O991   2.045       .  S
Fe979       O980   2.103       .  S
Fe979       O988   1.961       .  S
O980        C987   1.282       .  A
O981        C995   1.266       .  A
O982        C987   1.267       .  A
O983        C986   1.270       .  A
O984        C996   1.263       .  A
O985        C998   1.274       .  A
C986        O991   1.261       .  A
C986       C1083   1.476       .  S
C987       C1079   1.471       .  S
O989        C992   1.264       .  A
O990        C992   1.269       .  A
C992       C1007   1.470       .  S
O993        C998   1.262       .  A
O994        C996   1.270       .  A
C995        O997   1.282       .  A
C995       C1044   1.481       .  S
C996       C1048   1.479       .  S
C998       C1012   1.456       .  S
C999       C1000   1.350       .  D
C999       H1001   1.083       .  S
C1000      C1270   1.541       .  S
C1000      H1002   1.088       .  S
C1003      C1004   1.344       .  D
C1003      H1005   1.088       .  S
C1004      H1006   1.084       .  S
C1007      C1008   1.344       .  D
C1007      H1009   1.083       .  S
C1008      H1010   1.089       .  S
C1011      C1269   1.523   1_554  S
C1011      C1012   1.342       .  D
C1011      H1013   1.084       .  S
C1012      H1014   1.087       .  S
C1015      H1021   1.080   1_565  S
C1015      C1332   1.415   1_564  A
C1015      C1494   1.393       .  A
C1016      C1173   1.411   1_545  A
C1016      C1017   1.412       .  A
C1017      H1022   1.082       .  S
C1017      C1492   1.392   1_545  A
C1018      H1023   1.080       .  S
C1018      C1491   1.397       .  A
C1018      C1019   1.414       .  A
C1019      C1178   1.407       .  A
C1020      H1024   1.082       .  S
C1020      C1489   1.398       .  A
C1020      C1335   1.409       .  A
C1025      C1026   1.332       .  D
C1025      H1027   1.086       .  S
C1026      H1028   1.091       .  S
C1029      C1030   1.342       .  D
C1029      H1031   1.085       .  S
C1030      C1110   1.524       .  S
C1030      H1032   1.088       .  S
C1033      H1039   1.080       .  S
C1033      C1350   1.412       .  A
C1034      C1110   1.544       .  S
C1034      C1191   1.409       .  A
C1034      C1035   1.405       .  A
C1035      H1040   1.083       .  S
C1036      H1041   1.077       .  S
C1036      C1037   1.412       .  A
C1037      C1196   1.414       .  A
C1038      H1042   1.081       .  S
C1038      C1353   1.414   1_554  A
C1043      C1267   1.547       .  S
C1043      C1044   1.341       .  D
C1043      H1045   1.085       .  S
C1044      H1046   1.087       .  S
C1047      C1048   1.354       .  D
C1047      H1049   1.088       .  S
C1048      H1050   1.084       .  S
C1051      H1057   1.081       .  S
C1051      C1368   1.415   1_554  A
C1051      C1056   1.393       .  A
C1052      C1209   1.410       .  A
C1052      C1053   1.411       .  A
C1053      H1058   1.081       .  S
C1053      C1054   1.402       .  A
C1054      H1059   1.082       .  S
C1054      C1213   1.412       .  A
C1055      C1370   1.408       .  A
C1055      C1056   1.409   1_556  A
C1056      H1060   1.081       .  S
C1061      C1062   1.348       .  D
C1061      H1063   1.087       .  S
C1062      H1064   1.087       .  S
C1065      C1266   1.534   1_554  S
C1065      C1066   1.350       .  D
C1065      H1067   1.088       .  S
C1066      H1068   1.085       .  S
C1069      H1075   1.083       .  S
C1069      C1070   1.408       .  A
C1069      C1548   1.395       .  A
C1070      C1229   1.412       .  A
C1071      H1076   1.082       .  S
C1071      C1386   1.413   1_554  A
C1071      C1546   1.397       .  A
C1072      H1077   1.081       .  S
C1072      C1545   1.400   1_545  A
C1072      C1389   1.411       .  A
C1073      C1230   1.410       .  A
C1073      C1074   1.410       .  A
C1074      H1078   1.082       .  S
C1074      C1543   1.396   1_545  A
C1079      C1080   1.340       .  D
C1079      H1081   1.087       .  S
C1080      H1082   1.088       .  S
C1083      C1084   1.346       .  D
C1083      H1085   1.082       .  S
C1084      C1265   1.544   1_554  S
C1084      H1086   1.088       .  S
C1087      H1093   1.081       .  S
C1087      C1088   1.413       .  A
C1088      C1089   1.411       .  A
C1089      H1094   1.083       .  S
C1090      H1095   1.083       .  S
C1090      C1091   1.409       .  A
C1091      C1092   1.406       .  A
C1092      H1096   1.081       .  S
C1097      H1103   1.080       .  S
C1097      C1414   1.417       .  A
C1097      C1102   1.403       .  A
C1098      C1255   1.419       .  A
C1098      C1099   1.409       .  A
C1099      H1104   1.075       .  S
C1099      C1100   1.387       .  A
C1100      H1105   1.084       .  S
C1100      C1101   1.408       .  A
C1101      C1260   1.408       .  A
C1102      H1106   1.081       .  S
C1102      C1417   1.411       .  A
C1107      C1238   1.543       .  S
C1107      C1400   1.540       .  S
C1107      C1246   1.558       .  S
C1107      C1256   1.539       .  S
C1108      C1219   1.532       .  S
C1108      C1381   1.531       .  S
C1108      C1228   1.540       .  S
C1108      C1249   1.542       .  S
C1109      C1359   1.543       .  S
C1109      C1205   1.529       .  S
C1109      C1210   1.554       .  S
C1109      C1231   1.553       .  S
C1110      C1184   1.535       .  S
C1110      C1213   1.551       .  S
C1111      C1166   1.540       .  S
C1111      C1327   1.536       .  S
C1111      C1174   1.553       .  S
C1111      C1195   1.551       .  S
C1112      C1316   1.538       .  S
C1112      C1161   1.537       .  S
C1112      C1177   1.544       .  S
C1112      C1259   1.541       .  S
Fe1113     O1129   2.095       .  S
Fe1113     O1119   2.059       .  S
Fe1113     O1126   2.046       .  S
Fe1113     O1118   2.091       .  S
Fe1113     O1124   1.964       .  S
Fe1114     O1117   2.077       .  S
Fe1114     O1121   2.032       .  S
Fe1114     O1125   2.085       .  S
Fe1114     O1130   2.060       .  S
Fe1114     O1124   1.960       .  S
Fe1115     O1133   2.056       .  S
Fe1115     O1120   2.090       .  S
Fe1115     O1127   2.067       .  S
Fe1115     O1116   2.039       .  S
Fe1115     O1124   1.956       .  S
O1116      C1123   1.268       .  A
O1117      C1131   1.270       .  A
O1118      C1123   1.274       .  A
O1119      C1122   1.266       .  A
O1120      C1132   1.273       .  A
O1121      C1134   1.265       .  A
C1122      O1127   1.271       .  A
C1122      C1220   1.476       .  S
C1123      C1224   1.477       .  S
O1125      C1128   1.268       .  A
O1126      C1128   1.264       .  A
C1128      C1183   1.469       .  S
O1129      C1134   1.278       .  A
O1130      C1132   1.274       .  A
C1131      O1133   1.263       .  A
C1131      C1162   1.480       .  S
C1132      C1157   1.482       .  S
C1134      C1187   1.460       .  S
Fe1135     O1151   2.011       .  S
Fe1135     O1141   2.103       .  S
Fe1135     O1148   2.104       .  S
Fe1135     O1140   2.021       .  S
Fe1135     O1146   1.951       .  S
Fe1136     O1139   2.042       .  S
Fe1136     O1143   2.087       .  S
Fe1136     O1147   2.039       .  S
Fe1136     O1152   2.082       .  S
Fe1136     O1146   1.956       .  S
Fe1137     O1155   2.103       .  S
Fe1137     O1142   2.043       .  S
Fe1137     O1149   2.037       .  S
Fe1137     O1138   2.126       .  S
Fe1137     O1146   1.947       .  S
O1138      C1145   1.285       .  A
O1139      C1153   1.267       .  A
O1140      C1145   1.261       .  A
O1141      C1144   1.274       .  A
O1142      C1154   1.266       .  A
O1143      C1156   1.272       .  A
C1144      O1149   1.259       .  A
C1144      C1241   1.480       .  S
C1145      C1237   1.473       .  S
O1147      C1150   1.266       .  A
O1148      C1150   1.276       .  A
C1150      C1165   1.476       .  S
O1151      C1156   1.257       .  A
O1152      C1154   1.269       .  A
C1153      O1155   1.281       .  A
C1153      C1202   1.477       .  S
C1154      C1206   1.472       .  S
C1156      C1170   1.451       .  S
C1157      C1158   1.345       .  D
C1157      H1159   1.084       .  S
C1158      H1160   1.087       .  S
C1161      C1162   1.346       .  D
C1161      H1163   1.088       .  S
C1162      H1164   1.084       .  S
C1165      C1166   1.352       .  D
C1165      H1167   1.082       .  S
C1166      H1168   1.087       .  S
C1169      C1170   1.339       .  D
C1169      H1171   1.084       .  S
C1170      H1172   1.080       .  S
C1173      H1179   1.082   1_565  S
C1173      C1652   1.392       .  A
C1174      C1331   1.411       .  A
C1174      C1175   1.412       .  A
C1175      H1180   1.083       .  S
C1175      C1650   1.404   1_545  A
C1176      H1181   1.081       .  S
C1176      C1649   1.396       .  A
C1176      C1177   1.410       .  A
C1177      C1336   1.408       .  A
C1178      H1182   1.083       .  S
C1178      C1647   1.397       .  A
C1183      C1184   1.338       .  D
C1183      H1185   1.085       .  S
C1184      H1186   1.090       .  S
C1187      C1188   1.343       .  D
C1187      H1189   1.085       .  S
C1188      C1268   1.532       .  S
C1188      H1190   1.088       .  S
C1191      H1197   1.079       .  S
C1192      C1268   1.547       .  S
C1192      C1349   1.409       .  A
C1192      C1193   1.414       .  A
C1193      H1198   1.083       .  S
C1194      H1199   1.083       .  S
C1194      C1195   1.411       .  A
C1195      C1354   1.411       .  A
C1196      H1200   1.078       .  S
C1201      C1202   1.341       .  D
C1201      H1203   1.085       .  S
C1202      H1204   1.083       .  S
C1205      C1206   1.348       .  D
C1205      H1207   1.088       .  S
C1206      H1208   1.086       .  S
C1209      H1215   1.083       .  S
C1209      C1214   1.391       .  A
C1210      C1367   1.410       .  A
C1210      C1211   1.411       .  A
C1211      H1216   1.080       .  S
C1211      C1212   1.403       .  A
C1212      H1217   1.077       .  S
C1212      C1371   1.415       .  A
C1213      C1214   1.411       .  A
C1214      H1218   1.080       .  S
C1219      C1220   1.346       .  D
C1219      H1221   1.088       .  S
C1220      H1222   1.085       .  S
C1223      C1224   1.351       .  D
C1223      H1225   1.088       .  S
C1224      H1226   1.085       .  S
C1227      H1233   1.081       .  S
C1227      C1228   1.410       .  A
C1227      C1706   1.391       .  A
C1228      C1387   1.410       .  A
C1229      H1234   1.082       .  S
C1229      C1704   1.396       .  A
C1230      H1235   1.083       .  S
C1230      C1703   1.399   1_545  A
C1231      C1388   1.410       .  A
C1231      C1232   1.413       .  A
C1232      H1236   1.083       .  S
C1232      C1701   1.405   1_545  A
C1237      C1238   1.337       .  D
C1237      H1239   1.082       .  S
C1238      H1240   1.089       .  S
C1241      C1242   1.343       .  D
C1241      H1243   1.078       .  S
C1242      H1244   1.087       .  S
C1245      H1251   1.081       .  S
C1245      C1246   1.411       .  A
C1246      C1247   1.412       .  A
C1247      H1252   1.083       .  S
C1248      H1253   1.080       .  S
C1248      C1249   1.409       .  A
C1249      C1250   1.407       .  A
C1250      H1254   1.083       .  S
C1255      H1261   1.078       .  S
C1255      C1260   1.400       .  A
C1256      C1413   1.413       .  A
C1256      C1257   1.408       .  A
C1257      H1262   1.084       .  S
C1257      C1258   1.379       .  A
C1258      H1263   1.084       .  S
C1258      C1259   1.408       .  A
C1259      C1418   1.413       .  A
C1260      H1264   1.081       .  S
C1265      C1396   1.537       .  S
C1265      C1404   1.538       .  S
C1265      C1414   1.557   1_556  S
C1266      C1377   1.538       .  S
C1266      C1386   1.547       .  S
C1266      C1407   1.544       .  S
C1267      C1363   1.540   1_554  S
C1267      C1368   1.559   1_554  S
C1267      C1389   1.561       .  S
C1268      C1342   1.533       .  S
C1268      C1371   1.562       .  S
C1269      C1324   1.550       .  S
C1269      C1332   1.547       .  S
C1269      C1353   1.553       .  S
C1270      C1319   1.536   1_554  S
C1270      C1335   1.552       .  S
C1270      C1417   1.552       .  S
Fe1271     O1287   2.058       .  S
Fe1271     O1277   2.072       .  S
Fe1271     O1284   2.053       .  S
Fe1271     O1276   2.060       .  S
Fe1271     O1282   1.970       .  S
Fe1272     O1275   2.060       .  S
Fe1272     O1279   2.053       .  S
Fe1272     O1283   2.063       .  S
Fe1272     O1288   2.064       .  S
Fe1272     O1282   1.976       .  S
Fe1273     O1291   2.069       .  S
Fe1273     O1278   2.071       .  S
Fe1273     O1285   2.066       .  S
Fe1273     O1274   2.058       .  S
Fe1273     O1282   1.987       .  S
O1274      C1281   1.268       .  A
O1275      C1289   1.267       .  A
O1276      C1281   1.267       .  A
O1277      C1280   1.269       .  A
O1278      C1290   1.268       .  A
O1279      C1292   1.269       .  A
C1280      O1285   1.268       .  A
C1280      C1378   1.479       .  S
C1281      C1382   1.467       .  S
O1283      C1286   1.265       .  A
O1284      C1286   1.267       .  A
C1286      C1341   1.473       .  S
O1287      C1292   1.270       .  A
O1288      C1290   1.273       .  A
C1289      O1291   1.267       .  A
C1289      C1320   1.480       .  S
C1290      C1315   1.481       .  S
C1292      C1345   1.461       .  S
Fe1293     O1309   2.057       .  S
Fe1293     O1299   2.064       .  S
Fe1293     O1306   2.047       .  S
Fe1293     O1298   2.079       .  S
Fe1293     O1304   1.972       .  S
Fe1294     O1297   2.068       .  S
Fe1294     O1301   2.085       .  S
Fe1294     O1305   2.081       .  S
Fe1294     O1310   2.087       .  S
Fe1294     O1304   1.972       .  S
Fe1295     O1313   2.072       .  S
Fe1295     O1300   2.063       .  S
Fe1295     O1307   2.068       .  S
Fe1295     O1296   2.063       .  S
Fe1295     O1304   1.979       .  S
O1296      C1303   1.270       .  A
O1297      C1311   1.269       .  A
O1298      C1303   1.273       .  A
O1299      C1302   1.265       .  A
O1300      C1312   1.267       .  A
O1301      C1314   1.274       .  A
C1302      O1307   1.270       .  A
C1302      C1399   1.479       .  S
C1303      C1395   1.482       .  S
O1305      C1308   1.270       .  A
O1306      C1308   1.262       .  A
C1308      C1323   1.471       .  S
O1309      C1314   1.274       .  A
O1310      C1312   1.276       .  A
C1311      O1313   1.268       .  A
C1311      C1360   1.479       .  S
C1312      C1364   1.486       .  S
C1314      C1328   1.478       .  S
C1315      C1316   1.343       .  D
C1315      H1317   1.085       .  S
C1316      H1318   1.087       .  S
C1319      C1320   1.350       .  D
C1319      H1321   1.087       .  S
C1320      H1322   1.084       .  S
C1323      C1324   1.337       .  D
C1323      H1325   1.084       .  S
C1324      H1326   1.091       .  S
C1327      C1328   1.349       .  D
C1327      H1329   1.089       .  S
C1328      H1330   1.086       .  S
C1331      H1337   1.081       .  S
C1331      C1810   1.403   1_545  A
C1332      C1333   1.410   1_545  A
C1333      H1338   1.075   1_565  S
C1333      C1808   1.396       .  A
C1334      H1339   1.082       .  S
C1334      C1807   1.402       .  A
C1334      C1335   1.412   1_556  A
C1336      H1340   1.083       .  S
C1336      C1805   1.396       .  A
C1341      C1342   1.342       .  D
C1341      H1343   1.081       .  S
C1342      H1344   1.089       .  S
C1345      C1346   1.350       .  D
C1345      H1347   1.085       .  S
C1346      H1348   1.087       .  S
C1349      H1355   1.082       .  S
C1350      C1351   1.407   1_554  A
C1351      H1356   1.084       .  S
C1352      H1357   1.076       .  S
C1352      C1353   1.408       .  A
C1354      H1358   1.081       .  S
C1359      C1360   1.348       .  D
C1359      H1361   1.088       .  S
C1360      H1362   1.082       .  S
C1363      C1364   1.344       .  D
C1363      H1365   1.086       .  S
C1364      H1366   1.084       .  S
C1367      H1373   1.083       .  S
C1367      C1372   1.396       .  A
C1368      C1369   1.414       .  A
C1369      H1374   1.074       .  S
C1369      C1370   1.400       .  A
C1370      H1375   1.083       .  S
C1371      C1372   1.412       .  A
C1372      H1376   1.080       .  S
C1377      C1378   1.352       .  D
C1377      H1379   1.087       .  S
C1378      H1380   1.087       .  S
C1381      C1382   1.347       .  D
C1381      H1383   1.087       .  S
C1382      H1384   1.087       .  S
C1385      H1391   1.083       .  S
C1385      C1386   1.410       .  A
C1385      C1864   1.402       .  A
C1387      H1392   1.083       .  S
C1387      C1862   1.400       .  A
C1388      H1393   1.082       .  S
C1388      C1861   1.394   1_545  A
C1389      C1390   1.418   1_554  A
C1390      H1394   1.083       .  S
C1390      C1859   1.397   1_545  A
C1395      C1396   1.354       .  D
C1395      H1397   1.086       .  S
C1396      H1398   1.087       .  S
C1399      C1400   1.343       .  D
C1399      H1401   1.085       .  S
C1400      H1402   1.087       .  S
C1403      H1409   1.082       .  S
C1403      C1404   1.411       .  A
C1404      C1405   1.409   1_556  A
C1405      H1410   1.083       .  S
C1406      H1411   1.083       .  S
C1406      C1407   1.410   1_554  A
C1407      C1408   1.408       .  A
C1408      H1412   1.080       .  S
C1413      H1419   1.081       .  S
C1413      C1418   1.405       .  A
C1414      C1415   1.409   1_554  A
C1415      H1420   1.083       .  S
C1415      C1416   1.396       .  A
C1416      H1421   1.083       .  S
C1416      C1417   1.413   1_556  A
C1418      H1422   1.081       .  S
C1423      C1554   1.536       .  S
C1423      C1716   1.528       .  S
C1423      C1562   1.545       .  S
C1423      C1572   1.545       .  S
C1424      C1535   1.535       .  S
C1424      C1697   1.534       .  S
C1424      C1544   1.543       .  S
C1424      C1565   1.540       .  S
C1425      C1675   1.538       .  S
C1425      C1521   1.536       .  S
C1425      C1526   1.551       .  S
C1425      C1547   1.543       .  S
C1426      C1500   1.534   1_556  S
C1426      C1820   1.534       .  S
C1426      C1824   1.557   1_556  S
C1426      C1529   1.569   1_556  S
C1427      C1482   1.546       .  S
C1427      C1643   1.540       .  S
C1427      C1490   1.541       .  S
C1427      C1511   1.547       .  S
C1428      C1632   1.537       .  S
C1428      C1477   1.535       .  S
C1428      C1493   1.536       .  S
C1428      C1575   1.542       .  S
Fe1429     O1445   2.075       .  S
Fe1429     O1435   2.063       .  S
Fe1429     O1442   2.055       .  S
Fe1429     O1434   2.076       .  S
Fe1429     O1440   1.959       .  S
Fe1430     O1433   2.063       .  S
Fe1430     O1437   2.030       .  S
Fe1430     O1441   2.076       .  S
Fe1430     O1446   2.048       .  S
Fe1430     O1440   1.962       .  S
Fe1431     O1449   2.071       .  S
Fe1431     O1436   2.101       .  S
Fe1431     O1443   2.080       .  S
Fe1431     O1432   2.059       .  S
Fe1431     O1440   1.949       .  S
O1432      C1439   1.272       .  A
O1433      C1447   1.265       .  A
O1434      C1439   1.270       .  A
O1435      C1438   1.268       .  A
O1436      C1448   1.278       .  A
O1437      C1450   1.264       .  A
C1438      O1443   1.274       .  A
C1438      C1536   1.482       .  S
C1439      C1540   1.480       .  S
O1441      C1444   1.266       .  A
O1442      C1444   1.267       .  A
C1444      C1499   1.473       .  S
O1445      C1450   1.273       .  A
O1446      C1448   1.271       .  A
C1447      O1449   1.266       .  A
C1447      C1478   1.481       .  S
C1448      C1473   1.478       .  S
C1450      C1503   1.450       .  S
Fe1451     O1467   2.038       .  S
Fe1451     O1457   2.098       .  S
Fe1451     O1464   2.095       .  S
Fe1451     O1456   2.051       .  S
Fe1451     O1462   1.973       .  S
Fe1452     O1455   2.054       .  S
Fe1452     O1459   2.109       .  S
Fe1452     O1463   2.055       .  S
Fe1452     O1468   2.110       .  S
Fe1452     O1462   1.957       .  S
Fe1453     O1471   2.080       .  S
Fe1453     O1458   2.035       .  S
Fe1453     O1465   2.033       .  S
Fe1453     O1454   2.075       .  S
Fe1453     O1462   1.971       .  S
O1454      C1461   1.268       .  A
O1455      C1469   1.261       .  A
O1456      C1461   1.267       .  A
O1457      C1460   1.275       .  A
O1458      C1470   1.267       .  A
O1459      C1472   1.281       .  A
C1460      O1465   1.269       .  A
C1460      C1557   1.469       .  S
C1461      C1553   1.472       .  S
O1463      C1466   1.263       .  A
O1464      C1466   1.274       .  A
C1466      C1481   1.485       .  S
O1467      C1472   1.264       .  A
O1468      C1470   1.284       .  A
C1469      O1471   1.267       .  A
C1469      C1518   1.477       .  S
C1470      C1522   1.473       .  S
C1472      C1486   1.478       .  S
C1473      C1474   1.351       .  D
C1473      H1475   1.084       .  S
C1474      C1744   1.541   1_554  S
C1474      H1476   1.087       .  S
C1477      C1478   1.351       .  D
C1477      H1479   1.087       .  S
C1478      H1480   1.084       .  S
C1481      C1482   1.347       .  D
C1481      H1483   1.087       .  S
C1482      H1484   1.088       .  S
C1485      C1743   1.538       .  S
C1485      C1486   1.340       .  D
C1485      H1487   1.089       .  S
C1486      H1488   1.084       .  S
C1489      H1495   1.082       .  S
C1489      C1806   1.414       .  A
C1490      C1647   1.411       .  A
C1490      C1491   1.407       .  A
C1491      H1496   1.081       .  S
C1492      H1497   1.082       .  S
C1492      C1493   1.406       .  A
C1493      C1652   1.409       .  A
C1494      H1498   1.083       .  S
C1494      C1809   1.406   1_554  A
C1499      C1500   1.341       .  D
C1499      H1501   1.083       .  S
C1500      H1502   1.089       .  S
C1503      C1504   1.341       .  D
C1503      H1505   1.085       .  S
C1504      C1584   1.523       .  S
C1504      H1506   1.089       .  S
C1507      H1513   1.080       .  S
C1507      C1824   1.411       .  A
C1508      C1584   1.552       .  S
C1508      C1665   1.406       .  A
C1508      C1509   1.413       .  A
C1509      H1514   1.082       .  S
C1510      H1515   1.083       .  S
C1510      C1511   1.411       .  A
C1511      C1670   1.409       .  A
C1512      H1516   1.081       .  S
C1512      C1827   1.416       .  A
C1517      C1741   1.547   1_554  S
C1517      C1518   1.351       .  D
C1517      H1519   1.087       .  S
C1518      H1520   1.082       .  S
C1521      C1522   1.338       .  D
C1521      H1523   1.087       .  S
C1522      H1524   1.083       .  S
C1525      H1531   1.083       .  S
C1525      C1842   1.409   1_554  A
C1525      C1530   1.396       .  A
C1526      C1683   1.408       .  A
C1526      C1527   1.412       .  A
C1527      H1532   1.079       .  S
C1527      C1528   1.399       .  A
C1528      H1533   1.077       .  S
C1528      C1687   1.413       .  A
C1529      C1844   1.415   1_554  A
C1529      C1530   1.415       .  A
C1530      H1534   1.077       .  S
C1535      C1536   1.347       .  D
C1535      H1537   1.087       .  S
C1536      H1538   1.086       .  S
C1539      C1740   1.532   1_554  S
C1539      C1540   1.346       .  D
C1539      H1541   1.088       .  S
C1540      H1542   1.085       .  S
C1543      H1549   1.081       .  S
C1543      C1544   1.412       .  A
C1544      C1703   1.410       .  A
C1545      H1550   1.082       .  S
C1545      C1860   1.415   1_554  A
C1546      H1551   1.081       .  S
C1546      C1863   1.410   1_554  A
C1547      C1704   1.409       .  A
C1547      C1548   1.411       .  A
C1548      H1552   1.083       .  S
C1553      C1554   1.346       .  D
C1553      H1555   1.083       .  S
C1554      H1556   1.087       .  S
C1557      C1558   1.348       .  D
C1557      H1559   1.086       .  S
C1558      C1739   1.527       .  S
C1558      H1560   1.088       .  S
C1561      H1567   1.083       .  S
C1561      C1562   1.409       .  A
C1562      C1563   1.412       .  A
C1563      H1568   1.081       .  S
C1564      H1569   1.081       .  S
C1564      C1565   1.410       .  A
C1565      C1566   1.406       .  A
C1566      H1570   1.083       .  S
C1571      H1577   1.081       .  S
C1571      C1888   1.412       .  A
C1571      C1576   1.403       .  A
C1572      C1729   1.410       .  A
C1572      C1573   1.412       .  A
C1573      H1578   1.083       .  S
C1573      C1574   1.390       .  A
C1574      H1579   1.083       .  S
C1574      C1575   1.408       .  A
C1575      C1734   1.413       .  A
C1576      H1580   1.081       .  S
C1576      C1891   1.415       .  A
C1581      C1712   1.537       .  S
C1581      C1874   1.544       .  S
C1581      C1720   1.553       .  S
C1581      C1730   1.563       .  S
C1582      C1693   1.537       .  S
C1582      C1855   1.538       .  S
C1582      C1702   1.550       .  S
C1582      C1723   1.549       .  S
C1583      C1833   1.542       .  S
C1583      C1679   1.537       .  S
C1583      C1684   1.557       .  S
C1583      C1705   1.542       .  S
C1584      C1658   1.538       .  S
C1584      C1687   1.558       .  S
C1585      C1640   1.539       .  S
C1585      C1801   1.543       .  S
C1585      C1648   1.550       .  S
C1585      C1669   1.551       .  S
C1586      C1790   1.546       .  S
C1586      C1635   1.542       .  S
C1586      C1651   1.558       .  S
C1586      C1733   1.552       .  S
Fe1587     O1603   2.081       .  S
Fe1587     O1593   2.064       .  S
Fe1587     O1600   2.051       .  S
Fe1587     O1592   2.078       .  S
Fe1587     O1598   1.969       .  S
Fe1588     O1591   2.084       .  S
Fe1588     O1595   2.040       .  S
Fe1588     O1599   2.081       .  S
Fe1588     O1604   2.053       .  S
Fe1588     O1598   1.973       .  S
Fe1589     O1607   2.059       .  S
Fe1589     O1594   2.080       .  S
Fe1589     O1601   2.078       .  S
Fe1589     O1590   2.046       .  S
Fe1589     O1598   1.984       .  S
O1590      C1597   1.265       .  A
O1591      C1605   1.272       .  A
O1592      C1597   1.271       .  A
O1593      C1596   1.268       .  A
O1594      C1606   1.272       .  A
O1595      C1608   1.266       .  A
C1596      O1601   1.271       .  A
C1596      C1694   1.478       .  S
C1597      C1698   1.471       .  S
O1599      C1602   1.269       .  A
O1600      C1602   1.266       .  A
C1602      C1657   1.480       .  S
O1603      C1608   1.274       .  A
O1604      C1606   1.269       .  A
C1605      O1607   1.265       .  A
C1605      C1636   1.484       .  S
C1606      C1631   1.478       .  S
C1608      C1661   1.465       .  S
Fe1609     O1625   2.027       .  S
Fe1609     O1615   2.072       .  S
Fe1609     O1622   2.087       .  S
Fe1609     O1614   2.051       .  S
Fe1609     O1620   1.961       .  S
Fe1610     O1613   2.027       .  S
Fe1610     O1617   2.117       .  S
Fe1610     O1621   2.034       .  S
Fe1610     O1626   2.107       .  S
Fe1610     O1620   1.956       .  S
Fe1611     O1629   2.088       .  S
Fe1611     O1616   2.042       .  S
Fe1611     O1623   2.041       .  S
Fe1611     O1612   2.087       .  S
Fe1611     O1620   1.966       .  S
O1612      C1619   1.273       .  A
O1613      C1627   1.255       .  A
O1614      C1619   1.271       .  A
O1615      C1618   1.268       .  A
O1616      C1628   1.267       .  A
O1617      C1630   1.283       .  A
C1618      O1623   1.267       .  A
C1618      C1715   1.461       .  S
C1619      C1711   1.476       .  S
O1621      C1624   1.256       .  A
O1622      C1624   1.270       .  A
C1624      C1639   1.472       .  S
O1625      C1630   1.264       .  A
O1626      C1628   1.283       .  A
C1627      O1629   1.270       .  A
C1627      C1676   1.469       .  S
C1628      C1680   1.476       .  S
C1630      C1644   1.475       .  S
C1631      C1632   1.348       .  D
C1631      H1633   1.085       .  S
C1632      H1634   1.087       .  S
C1635      C1636   1.347       .  D
C1635      H1637   1.087       .  S
C1636      H1638   1.084       .  S
C1639      C1640   1.341       .  D
C1639      H1641   1.087       .  S
C1640      H1642   1.088       .  S
C1643      C1644   1.338       .  D
C1643      H1645   1.087       .  S
C1644      H1646   1.088       .  S
C1647      H1653   1.083       .  S
C1648      C1805   1.413       .  A
C1648      C1649   1.412       .  A
C1649      H1654   1.081       .  S
C1650      H1655   1.083       .  S
C1650      C1651   1.411       .  A
C1651      C1810   1.414       .  A
C1652      H1656   1.083       .  S
C1657      C1658   1.348       .  D
C1657      H1659   1.081       .  S
C1658      H1660   1.089       .  S
C1661      C1662   1.346       .  D
C1661      H1663   1.087       .  S
C1662      C1742   1.525       .  S
C1662      H1664   1.087       .  S
C1665      H1671   1.082       .  S
C1666      C1742   1.550       .  S
C1666      C1823   1.413       .  A
C1666      C1667   1.410       .  A
C1667      H1672   1.083       .  S
C1668      H1673   1.077       .  S
C1668      C1669   1.409       .  A
C1669      C1828   1.418       .  A
C1670      H1674   1.080       .  S
C1675      C1676   1.341       .  D
C1675      H1677   1.088       .  S
C1676      H1678   1.086       .  S
C1679      C1680   1.342       .  D
C1679      H1681   1.087       .  S
C1680      H1682   1.085       .  S
C1683      H1689   1.084       .  S
C1683      C1688   1.394       .  A
C1684      C1841   1.413       .  A
C1684      C1685   1.412       .  A
C1685      H1690   1.081       .  S
C1685      C1686   1.406       .  A
C1686      H1691   1.083       .  S
C1686      C1845   1.413       .  A
C1687      C1688   1.414       .  A
C1688      H1692   1.079       .  S
C1693      C1694   1.350       .  D
C1693      H1695   1.087       .  S
C1694      H1696   1.087       .  S
C1697      C1698   1.352       .  D
C1697      H1699   1.087       .  S
C1698      H1700   1.085       .  S
C1701      H1707   1.083       .  S
C1701      C1702   1.410       .  A
C1702      C1861   1.413       .  A
C1703      H1708   1.083       .  S
C1704      H1709   1.081       .  S
C1705      C1862   1.409       .  A
C1705      C1706   1.411       .  A
C1706      H1710   1.082       .  S
C1711      C1712   1.345       .  D
C1711      H1713   1.083       .  S
C1712      H1714   1.089       .  S
C1715      C1716   1.342       .  D
C1715      H1717   1.086       .  S
C1716      H1718   1.089       .  S
C1719      H1725   1.082       .  S
C1719      C1720   1.415       .  A
C1720      C1721   1.411       .  A
C1721      H1726   1.082       .  S
C1722      H1727   1.083       .  S
C1722      C1723   1.407       .  A
C1723      C1724   1.412       .  A
C1724      H1728   1.080       .  S
C1729      H1735   1.080       .  S
C1729      C1734   1.395       .  A
C1730      C1887   1.419       .  A
C1730      C1731   1.410       .  A
C1731      H1736   1.075       .  S
C1731      C1732   1.391       .  A
C1732      H1737   1.084       .  S
C1732      C1733   1.409       .  A
C1733      C1892   1.411       .  A
C1734      H1738   1.080       .  S
C1739      C1870   1.538   1_554  S
C1739      C1878   1.546   1_554  S
C1739      C1888   1.554   1_554  S
C1740      C1851   1.539       .  S
C1740      C1860   1.546       .  S
C1740      C1881   1.549       .  S
C1741      C1837   1.535       .  S
C1741      C1842   1.559       .  S
C1741      C1863   1.552       .  S
C1742      C1816   1.534       .  S
C1742      C1845   1.556       .  S
C1743      C1798   1.550   1_554  S
C1743      C1806   1.550       .  S
C1743      C1827   1.572       .  S
C1744      C1793   1.534       .  S
C1744      C1809   1.542       .  S
C1744      C1891   1.550       .  S
Fe1745     O1761   2.070       .  S
Fe1745     O1751   2.060       .  S
Fe1745     O1758   2.054       .  S
Fe1745     O1750   2.081       .  S
Fe1745     O1756   1.977       .  S
Fe1746     O1749   2.063       .  S
Fe1746     O1753   2.051       .  S
Fe1746     O1757   2.073       .  S
Fe1746     O1762   2.073       .  S
Fe1746     O1756   1.974       .  S
Fe1747     O1765   2.066       .  S
Fe1747     O1752   2.077       .  S
Fe1747     O1759   2.075       .  S
Fe1747     O1748   2.059       .  S
Fe1747     O1756   1.975       .  S
O1748      C1755   1.271       .  A
O1749      C1763   1.268       .  A
O1750      C1755   1.271       .  A
O1751      C1754   1.266       .  A
O1752      C1764   1.270       .  A
O1753      C1766   1.266       .  A
C1754      O1759   1.268       .  A
C1754      C1852   1.476       .  S
C1755      C1856   1.480       .  S
O1757      C1760   1.269       .  A
O1758      C1760   1.266       .  A
C1760      C1815   1.465       .  S
O1761      C1766   1.270       .  A
O1762      C1764   1.272       .  A
C1763      O1765   1.268       .  A
C1763      C1794   1.477       .  S
C1764      C1789   1.482       .  S
C1766      C1819   1.465       .  S
Fe1767     O1783   2.039       .  S
Fe1767     O1773   2.091       .  S
Fe1767     O1780   2.083       .  S
Fe1767     O1772   2.056       .  S
Fe1767     O1778   1.961       .  S
Fe1768     O1771   2.075       .  S
Fe1768     O1775   2.091       .  S
Fe1768     O1779   2.076       .  S
Fe1768     O1784   2.098       .  S
Fe1768     O1778   1.965       .  S
Fe1769     O1787   2.063       .  S
Fe1769     O1774   2.044       .  S
Fe1769     O1781   2.040       .  S
Fe1769     O1770   2.078       .  S
Fe1769     O1778   1.960       .  S
O1770      C1777   1.270       .  A
O1771      C1785   1.267       .  A
O1772      C1777   1.270       .  A
O1773      C1776   1.272       .  A
O1774      C1786   1.270       .  A
O1775      C1788   1.276       .  A
C1776      O1781   1.264       .  A
C1776      C1873   1.470       .  S
C1777      C1869   1.473       .  S
O1779      C1782   1.271       .  A
O1780      C1782   1.271       .  A
C1782      C1797   1.487       .  S
O1783      C1788   1.266       .  A
O1784      C1786   1.278       .  A
C1785      O1787   1.267       .  A
C1785      C1834   1.485       .  S
C1786      C1838   1.476       .  S
C1788      C1802   1.470       .  S
C1789      C1790   1.348       .  D
C1789      H1791   1.083       .  S
C1790      H1792   1.088       .  S
C1793      C1794   1.351       .  D
C1793      H1795   1.087       .  S
C1794      H1796   1.084       .  S
C1797      C1798   1.351       .  D
C1797      H1799   1.079       .  S
C1798      H1800   1.089       .  S
C1801      C1802   1.344       .  D
C1801      H1803   1.086       .  S
C1802      H1804   1.076       .  S
C1805      H1811   1.083       .  S
C1806      C1807   1.410   1_554  A
C1807      H1812   1.083       .  S
C1808      H1813   1.082       .  S
C1808      C1809   1.408       .  A
C1810      H1814   1.081       .  S
C1815      C1816   1.333       .  D
C1815      H1817   1.086       .  S
C1816      H1818   1.090       .  S
C1819      C1820   1.348       .  D
C1819      H1821   1.080       .  S
C1820      H1822   1.088       .  S
C1823      H1829   1.079       .  S
C1824      C1825   1.415   1_554  A
C1825      H1830   1.083       .  S
C1826      H1831   1.083       .  S
C1826      C1827   1.413       .  A
C1828      H1832   1.078       .  S
C1833      C1834   1.352       .  D
C1833      H1835   1.083       .  S
C1834      H1836   1.085       .  S
C1837      C1838   1.354       .  D
C1837      H1839   1.087       .  S
C1838      H1840   1.085       .  S
C1841      H1847   1.081       .  S
C1841      C1846   1.396       .  A
C1842      C1843   1.414       .  A
C1843      H1848   1.079       .  S
C1843      C1844   1.409       .  A
C1844      H1849   1.079       .  S
C1845      C1846   1.410       .  A
C1846      H1850   1.080       .  S
C1851      C1852   1.352       .  D
C1851      H1853   1.086       .  S
C1852      H1854   1.087       .  S
C1855      C1856   1.348       .  D
C1855      H1857   1.089       .  S
C1856      H1858   1.084       .  S
C1859      H1865   1.083       .  S
C1859      C1860   1.404       .  A
C1861      H1866   1.081       .  S
C1862      H1867   1.083       .  S
C1863      C1864   1.412       .  A
C1864      H1868   1.083       .  S
C1869      C1870   1.344       .  D
C1869      H1871   1.082       .  S
C1870      H1872   1.088       .  S
C1873      C1874   1.349       .  D
C1873      H1875   1.079       .  S
C1874      H1876   1.084       .  S
C1877      H1883   1.082       .  S
C1877      C1878   1.411       .  A
C1878      C1879   1.410   1_556  A
C1879      H1884   1.083       .  S
C1880      H1885   1.083       .  S
C1880      C1881   1.408   1_554  A
C1881      C1882   1.412       .  A
C1882      H1886   1.081       .  S
C1887      H1893   1.079       .  S
C1887      C1892   1.408       .  A
C1888      C1889   1.412       .  A
C1889      H1894   1.083   1_556  S
C1889      C1890   1.394       .  A
C1890      H1895   1.083       .  S
C1890      C1891   1.409       .  A
C1892      H1896   1.081       .  S
