geometry optimzed in LAMMPS
_audit_creation_date              2020-11-30 
_audit_creation_method            'lammps2cif' 
_symmetry_space_group_name_H-M    'P1' 
_symmetry_Int_Tables_number       1 
_symmetry_cell_setting            triclinic 
loop_ 
_symmetry_equiv_pos_as_xyz 
  x,y,z 
_cell_length_a                    53.57110179 
_cell_length_b                    37.691666421366975 
_cell_length_c                    23.72567812985284 
_cell_angle_alpha                 90.00108689675925 
_cell_angle_beta                  90.0012430836474 
_cell_angle_gamma                 89.99951202692988 
loop_ 
_atom_site_label 
_atom_site_type_symbol 
_atom_site_fract_x 
_atom_site_fract_y 
_atom_site_fract_z 
_atom_site_charge 
N1          N  0.66506691  0.36431836  0.56972528    -0.26900
N2          N  0.68596702  0.38203867  0.57877051    -0.34800
C3          C  0.70559964  0.36046673  0.57365111     0.01400
C4          C  0.69722096  0.32717409  0.55961019     0.07500
C5          C  0.67127186  0.33033344  0.55710127    -0.05600
H6          H  0.72482162  0.36912418  0.57643207     0.08100
H7          H  0.65809056  0.30990211  0.54528741     0.09300
Cu8        Cu  0.68910094  0.43537551  0.59091828     0.44200
Cu9        Cu  0.63020548  0.39052750  0.57544883     0.42000
Cu10       Cu  0.63800001  0.48108005  0.63854667     0.43900
N11         N  0.69186713  0.48800098  0.60949383    -0.34300
N12         N  0.67274175  0.50555334  0.63041129    -0.28600
C13         C  0.68067925  0.53784358  0.64658496    -0.04700
C14         C  0.70603971  0.54053376  0.63494301     0.07600
C15         C  0.71245901  0.50827183  0.61153081     0.01400
H16         H  0.66943900  0.55676797  0.66964775     0.09000
H17         H  0.73109971  0.49892291  0.60218257     0.08100
N18         N  0.60394092  0.45725189  0.61921012    -0.35700
N19         N  0.60100512  0.42719144  0.59105645    -0.27900
C20         C  0.57803634  0.42751521  0.56740224    -0.03200
C21         C  0.56577664  0.45891274  0.58164714     0.05400
C22         C  0.58287127  0.47639111  0.61559202     0.03500
H23         H  0.57213834  0.40892493  0.53530893     0.08600
H24         H  0.58196216  0.50420474  0.62677787     0.07500
N25         N  0.66556258  0.36507357  0.93825793    -0.26900
N26         N  0.68645774  0.38331610  0.93242791    -0.34800
C27         C  0.70613606  0.36165186  0.93531101     0.01400
C28         C  0.69775933  0.32772721  0.94479736     0.07500
C29         C  0.67179354  0.33062158  0.94676858    -0.05600
H30         H  0.72534141  0.37055539  0.93487718     0.08100
H31         H  0.65860707  0.30963209  0.95573469     0.09300
Cu32       Cu  0.68933769  0.43711289  0.92844552     0.44200
Cu33       Cu  0.63063777  0.39113715  0.93404739     0.42000
Cu34       Cu  0.63883035  0.48271561  0.87689074     0.43900
N35         N  0.69190056  0.49005103  0.91285482    -0.34300
N36         N  0.67313785  0.50747712  0.89007298    -0.28600
C37         C  0.68129574  0.53973022  0.87445586    -0.04700
C38         C  0.70643280  0.54249194  0.88820863     0.07600
C39         C  0.71248081  0.51036872  0.91254295     0.01400
H40         H  0.67052837  0.55837675  0.84972860     0.09000
H41         H  0.73100126  0.50094037  0.92286739     0.08100
N42         N  0.60459570  0.45829210  0.89202637    -0.35700
N43         N  0.60145350  0.42784066  0.91892885    -0.27900
C44         C  0.57828206  0.42776421  0.94154375    -0.05600
C45         C  0.56609859  0.45932804  0.92786445     0.05400
C46         C  0.58344277  0.47726028  0.89515196     0.03500
H47         H  0.57215966  0.40875130  0.97278492     0.08600
H48         H  0.58262649  0.50525056  0.88508764     0.07500
N49         N  0.73069557  0.57699185  0.76127547    -0.36200
N50         N  0.73654872  0.62739490  0.67242860    -0.56800
N51         N  0.74079148  0.68331658  0.75912760    -0.36200
N52         N  0.73717875  0.62854499  0.84844330    -0.56800
C53         C  0.73239459  0.55570937  0.71601732     0.27400
C54         C  0.73302343  0.55642620  0.80724493     0.27400
C55         C  0.74739197  0.70182573  0.71227049     0.27400
C56         C  0.74728985  0.70252219  0.80535748     0.27400
C57         C  0.72476787  0.60096573  0.64416302     0.36000
C58         C  0.73363469  0.65695707  0.64107946     0.36000
C59         C  0.72515625  0.60259308  0.87726443     0.36000
C60         C  0.73311386  0.65876747  0.87741139     0.36000
C61         C  0.73721397  0.52121816  0.73319430    -0.21500
C62         C  0.73765320  0.52168450  0.79109405    -0.21500
C63         C  0.75801346  0.73371900  0.72901621    -0.21500
C64         C  0.75795416  0.73414951  0.78765125    -0.21500
C65         C  0.71498383  0.61340373  0.59410174    -0.22600
C66         C  0.72079820  0.64880665  0.59203516    -0.22600
C67         C  0.71409319  0.61604141  0.92526496    -0.22600
C68         C  0.71922069  0.65163553  0.92528810    -0.22600
C69         C  0.72314786  0.56565285  0.66310767    -0.17900
C70         C  0.72392553  0.56696986  0.85997679    -0.17900
C71         C  0.74220975  0.69268219  0.86243212    -0.17900
C72         C  0.74256264  0.69118518  0.65537721    -0.17900
H73         H  0.73835490  0.49769400  0.70727986     0.15000
H74         H  0.73910892  0.49857519  0.81786562     0.15000
H75         H  0.76478766  0.75468789  0.70186087     0.15000
H76         H  0.76464355  0.75550635  0.81414442     0.15000
H77         H  0.70466077  0.59862416  0.56268013     0.13300
H78         H  0.71521791  0.66691271  0.55946969     0.13300
H79         H  0.70308531  0.60187293  0.95619681     0.13300
H80         H  0.71231660  0.67060993  0.95518115     0.13300
H81         H  0.72222142  0.60185547  0.76103922     0.26500
H82         H  0.73021759  0.66021464  0.75957870     0.26500
N83         N  0.66472283  0.63938687  0.44099017    -0.26900
N84         N  0.68564024  0.62173136  0.43181359    -0.34800
C85         C  0.70524064  0.64337513  0.43680806     0.01400
C86         C  0.69682351  0.67664258  0.45090506     0.07500
C87         C  0.67088451  0.67339360  0.45357526    -0.05600
H88         H  0.72447382  0.63478485  0.43390132     0.08100
H89         H  0.65768246  0.69378000  0.46546758     0.09300
Cu90       Cu  0.68886311  0.56838598  0.41961190     0.44200
Cu91       Cu  0.62989337  0.61310145  0.43541799     0.42000
Cu92       Cu  0.63783371  0.52279728  0.37158556     0.43900
N93         N  0.69164627  0.51575189  0.40093455    -0.34300
N94         N  0.67252984  0.49825125  0.37987245    -0.28600
C95         C  0.68044569  0.46595088  0.36370106    -0.04700
C96         C  0.70578819  0.46318416  0.37549391     0.07600
C97         C  0.71221721  0.49542854  0.39898340     0.01400
H98         H  0.66921072  0.44707827  0.34051749     0.09000
H99         H  0.73086047  0.50473561  0.40841042     0.08100
N100        N  0.60375061  0.54644217  0.39110511    -0.35700
N101        N  0.60076720  0.57637532  0.41957056    -0.27900
C102        C  0.57781677  0.57585165  0.44329108    -0.03200
C103        C  0.56562286  0.54445734  0.42875400     0.05400
C104        C  0.58273061  0.52718939  0.39459365     0.03500
H105        H  0.57189693  0.59428125  0.47559741     0.08600
H106        H  0.58188242  0.49941237  0.38315756     0.07500
N107        N  0.66516490  0.63842634  0.07162731    -0.26900
N108        N  0.68607230  0.62022004  0.07753952    -0.34800
C109        C  0.70573134  0.64193214  0.07488348     0.01400
C110        C  0.69733597  0.67585653  0.06546588     0.07500
C111        C  0.67137384  0.67290593  0.06328934    -0.05600
H112        H  0.72494496  0.63306752  0.07543716     0.08100
H113        H  0.65817791  0.69388258  0.05431453     0.09300
Cu114      Cu  0.68902545  0.56641898  0.08143246     0.44200
Cu115      Cu  0.63025890  0.61227694  0.07560717     0.42000
Cu116      Cu  0.63866293  0.52084516  0.13327018     0.43900
N117        N  0.69167894  0.51349239  0.09712667    -0.34300
N118        N  0.67293778  0.49606473  0.11998147    -0.28600
C119        C  0.68111286  0.46383396  0.13565727    -0.04700
C120        C  0.70624770  0.46108554  0.12188909     0.07600
C121        C  0.71227254  0.49319939  0.09747668     0.01400
H122        H  0.67036583  0.44521358  0.16047796     0.09000
H123        H  0.73078779  0.50264883  0.08715673     0.08100
N124        N  0.60439343  0.54509475  0.11808171    -0.35700
N125        N  0.60117262  0.57543351  0.09090607    -0.27900
C126        C  0.57801172  0.57527897  0.06823849    -0.03200
C127        C  0.56592618  0.54368354  0.08217904     0.05400
C128        C  0.58330509  0.52598076  0.11508903     0.03500
H129        H  0.57184048  0.59413884  0.03681149     0.08600
H130        H  0.58257886  0.49801720  0.12537343     0.07500
N131        N  0.73042095  0.42675968  0.24904769    -0.36200
N132        N  0.73652707  0.37646784  0.33792416    -0.56800
N133        N  0.74107828  0.32057384  0.25130732    -0.36200
N134        N  0.73721714  0.37523733  0.16195624    -0.56800
C135        C  0.73207145  0.44807729  0.29428075     0.27400
C136        C  0.73274628  0.44732067  0.20306610     0.27400
C137        C  0.74781325  0.30217435  0.29818570     0.27400
C138        C  0.74771509  0.30142531  0.20510819     0.27400
C139        C  0.72466208  0.40281342  0.36621195     0.36000
C140        C  0.73379601  0.34690071  0.36934490     0.36000
C141        C  0.72513248  0.40108784  0.13303547     0.36000
C142        C  0.73331896  0.34497581  0.13297367     0.36000
C143        C  0.73682716  0.48257819  0.27708097    -0.21500
C144        C  0.73729535  0.48208673  0.21918537    -0.21500
C145        C  0.75867430  0.27043849  0.28148407    -0.21500
C146        C  0.75861592  0.26997410  0.22285472    -0.21500
C147        C  0.71499823  0.39032480  0.41635538    -0.22600
C148        C  0.72098124  0.35497450  0.41844735    -0.22600
C149        C  0.71419153  0.38754487  0.08496271    -0.22600
C150        C  0.71945994  0.35199070  0.08500393    -0.22600
C151        C  0.72289876  0.43810565  0.34723369    -0.17900
C152        C  0.72375661  0.43670514  0.15028317    -0.17900
C153        C  0.74255022  0.31114433  0.14802688    -0.17900
C154        C  0.74288775  0.31275205  0.35506025    -0.17900
H155        H  0.73792911  0.50611311  0.30298067     0.15000
H156        H  0.73873647  0.50518419  0.19238344     0.15000
H157        H  0.76560879  0.24958931  0.30866687     0.15000
H158        H  0.76546773  0.24870712  0.19639097     0.15000
H159        H  0.70465722  0.40503829  0.44782458     0.13300
H160        H  0.71553532  0.33684635  0.45108334     0.13300
H161        H  0.70317468  0.40162179  0.05394015     0.13300
H162        H  0.71266905  0.33295732  0.05508874     0.13300
H163        H  0.72202691  0.40187437  0.24929033     0.26500
H164        H  0.73034169  0.34347181  0.25082566     0.26500
C165        C  0.54940640  0.52401430  0.46785198    -0.10500
C166        C  0.56195433  0.50162471  0.50512885    -0.04300
C167        C  0.54948358  0.47913694  0.54239033    -0.10500
C168        C  0.52301458  0.47869254  0.54259508     0.10500
C169        C  0.50969858  0.50138749  0.50500920    -0.02300
C170        C  0.52294197  0.52420497  0.46749808     0.10300
C171        C  0.50938986  0.54618925  0.43068757    -0.12300
C172        C  0.48326490  0.54604785  0.43057765    -0.12300
C173        C  0.46978110  0.52393849  0.46730518     0.10300
C174        C  0.48309778  0.50127331  0.50494356    -0.02300
C175        C  0.50952433  0.45658290  0.57932521    -0.12400
C176        C  0.48339795  0.45649052  0.57929375    -0.12400
C177        C  0.46985032  0.47849063  0.54251209     0.10500
C178        C  0.44338522  0.47873357  0.54220594    -0.10500
C179        C  0.43085391  0.50106656  0.50485714    -0.04300
C180        C  0.44331498  0.52347379  0.46750099    -0.10500
H181        H  0.51896812  0.56373164  0.40172775     0.07700
H182        H  0.47363096  0.56348218  0.40154534     0.07700
H183        H  0.51915291  0.43912447  0.60832916     0.07900
H184        H  0.47381338  0.43896848  0.60827453     0.07900
H185        H  0.58223244  0.50171953  0.50515870     0.04400
H186        H  0.41057428  0.50098528  0.50483427     0.04400
N187        N  0.32709991  0.63684268  0.44238497    -0.26900
N188        N  0.30618371  0.61890742  0.43472975    -0.34800
C189        C  0.28654503  0.64054386  0.43921309     0.01400
C190        C  0.29497831  0.67409878  0.45142678     0.07500
C191        C  0.32092593  0.67102104  0.45351410    -0.05600
H192        H  0.26731604  0.63182194  0.43732095     0.08100
H193        H  0.33414393  0.69168492  0.46402094     0.09300
Cu194      Cu  0.30322989  0.56539353  0.42478355     0.44200
Cu195      Cu  0.36201569  0.61088328  0.43658805     0.42000
Cu196      Cu  0.35448788  0.52057764  0.37405402     0.43900
N197        N  0.30083349  0.51289660  0.40538570    -0.34300
N198        N  0.31991934  0.49580471  0.38330886    -0.28600
C199        C  0.31202648  0.46370392  0.36619887    -0.04700
C200        C  0.28674630  0.46068509  0.37834861     0.07600
C201        C  0.28030616  0.49251416  0.40310444     0.01400
H202        H  0.32319388  0.44524545  0.34202826     0.09000
H203        H  0.26166320  0.50162222  0.41301553     0.08100
N204        N  0.38856643  0.54478353  0.39187350    -0.35700
N205        N  0.39143920  0.57481682  0.42008855    -0.27900
C206        C  0.41454034  0.57481958  0.44304475    -0.03200
C207        C  0.42696587  0.54364110  0.42831047     0.05400
C208        C  0.40981730  0.52599564  0.39467144     0.03500
H209        H  0.42044462  0.59339455  0.47515521     0.08600
H210        H  0.41085027  0.49819919  0.38342706     0.07500
N211        N  0.32834408  0.63868547  0.07346830    -0.26900
N212        N  0.30746950  0.62061010  0.08083374    -0.34800
C213        C  0.28779662  0.64223677  0.07745512     0.01400
C214        C  0.29610890  0.67595816  0.06607772     0.07500
C215        C  0.32207402  0.67299140  0.06348776    -0.05600
H216        H  0.26859487  0.63336348  0.07892752     0.08100
H217        H  0.33521443  0.69378672  0.05313451     0.09300
Cu218      Cu  0.30439768  0.56688864  0.08708981     0.44200
Cu219      Cu  0.36322399  0.61239912  0.07754823     0.42000
Cu220      Cu  0.35481924  0.52055119  0.13534265     0.43900
N221        N  0.30151222  0.51381591  0.10171275    -0.34300
N222        N  0.32036708  0.49596722  0.12319647    -0.28600
C223        C  0.31222807  0.46350565  0.13784408    -0.04700
C224        C  0.28699304  0.46101825  0.12474727     0.07600
C225        C  0.28089228  0.49356666  0.10185512     0.01400
H226        H  0.32312353  0.44442324  0.16141828     0.09000
H227        H  0.26234686  0.50319762  0.09226033     0.08100
N228        N  0.38902101  0.54476269  0.11897727    -0.35700
N229        N  0.39221195  0.57521086  0.09204914    -0.27900
C230        C  0.41527789  0.57500870  0.06886461    -0.03200
C231        C  0.42732299  0.54328467  0.08221390     0.05400
C232        C  0.41002897  0.52552167  0.11523294     0.03500
H233        H  0.42139709  0.59400106  0.03758906     0.08600
H234        H  0.41074293  0.49752847  0.12531095     0.07500
N235        N  0.26255764  0.42536151  0.25110900    -0.36200
N236        N  0.25633322  0.37445798  0.16286741    -0.56800
N237        N  0.25237838  0.31902499  0.25052131    -0.36200
N238        N  0.25630044  0.37429803  0.33879702    -0.56800
C239        C  0.26045673  0.44635105  0.20558850     0.27400
C240        C  0.26054540  0.44622255  0.29681958     0.27400
C241        C  0.24588759  0.30016455  0.20392172     0.27400
C242        C  0.24580212  0.30013081  0.29702651     0.27400
C243        C  0.26804621  0.40079500  0.13423204     0.36000
C244        C  0.25959191  0.34467546  0.13221080     0.36000
C245        C  0.26822113  0.40039130  0.36751316     0.36000
C246        C  0.25982197  0.34432942  0.36875749     0.36000
C247        C  0.25570174  0.48093362  0.22244721    -0.21500
C248        C  0.25577689  0.48085066  0.28035566    -0.21500
C249        C  0.23526682  0.26837331  0.22109196    -0.21500
C250        C  0.23520232  0.26836081  0.27972911    -0.21500
C251        C  0.27810150  0.38807054  0.08463604    -0.22600
C252        C  0.27257526  0.35257468  0.08329688    -0.22600
C253        C  0.27868887  0.38731528  0.41643894    -0.22600
C254        C  0.27325172  0.35181360  0.41720772    -0.22600
C255        C  0.26957970  0.43621525  0.15266031    -0.17900
C256        C  0.26963424  0.43588435  0.34963901    -0.17900
C257        C  0.25071863  0.31034457  0.35404419    -0.17900
C258        C  0.25080231  0.31045624  0.14691909    -0.17900
H259        H  0.25429885  0.50429457  0.19623445     0.15000
H260        H  0.25447316  0.50410743  0.30684921     0.15000
H261        H  0.22856345  0.24721018  0.19422664     0.15000
H262        H  0.22846449  0.24717790  0.30650870     0.15000
H263        H  0.28850593  0.40269974  0.05317728     0.13300
H264        H  0.27849829  0.33421245  0.05144360     0.13300
H265        H  0.28939240  0.40168318  0.44769081     0.13300
H266        H  0.27958813  0.33315145  0.44819889     0.13300
H267        H  0.27104304  0.40052781  0.25096109     0.26500
H268        H  0.26291071  0.34212939  0.25061248     0.26500
N269        N  0.32760560  0.36434421  0.56721106    -0.26900
N270        N  0.30664911  0.38214282  0.57511939    -0.34800
C271        C  0.28707125  0.36038613  0.57076828     0.01400
C272        C  0.29557844  0.32689158  0.55837750     0.07500
C273        C  0.32151440  0.33013492  0.55605162    -0.05600
H274        H  0.26782036  0.36899118  0.57286096     0.08100
H275        H  0.33477508  0.30956633  0.54534773     0.09300
Cu276      Cu  0.30351316  0.43564848  0.58517919     0.44200
Cu277      Cu  0.36244601  0.39053830  0.57274625     0.42000
Cu278      Cu  0.35457986  0.48071457  0.63580266     0.43900
N279        N  0.30093134  0.48816176  0.60450275    -0.34300
N280        N  0.31997011  0.50536030  0.62656695    -0.28600
C281        C  0.31200811  0.53745452  0.64355686    -0.04700
C282        C  0.28672685  0.54037136  0.63132768     0.07600
C283        C  0.28036383  0.50847275  0.60666474     0.01400
H284        H  0.32313107  0.55598462  0.66769440     0.09000
H285        H  0.26174416  0.49927968  0.59672865     0.08100
N286        N  0.38872590  0.45680041  0.61772208    -0.35700
N287        N  0.39171055  0.42685997  0.58931276    -0.27900
C288        C  0.41480170  0.42711232  0.56631207    -0.03200
C289        C  0.42710183  0.45835434  0.58123874     0.05400
C290        C  0.40989316  0.47577809  0.61499450     0.03500
H291        H  0.42077822  0.40866118  0.53408964     0.08600
H292        H  0.41081579  0.50355338  0.62641737     0.07500
N293        N  0.32883233  0.36253626  0.93640108    -0.26900
N294        N  0.30791986  0.38051329  0.92896399    -0.34800
C295        C  0.28829657  0.35879382  0.93226703     0.01400
C296        C  0.29667318  0.32510519  0.94365925     0.07500
C297        C  0.32263264  0.32819460  0.94634098    -0.05600
H298        H  0.26907646  0.36758154  0.93071869     0.08100
H299        H  0.33581316  0.30745816  0.95673506     0.09300
Cu300      Cu  0.30469070  0.43422300  0.92265167     0.44200
Cu301      Cu  0.36364629  0.38903096  0.93248435     0.42000
Cu302      Cu  0.35490847  0.48086008  0.87454635     0.43900
N303        N  0.30157008  0.48726738  0.90791513    -0.34300
N304        N  0.32037522  0.50525052  0.88650395    -0.28600
C305        C  0.31213623  0.53766425  0.87185765    -0.04700
C306        C  0.28688447  0.53998343  0.88488734     0.07600
C307        C  0.28088001  0.50737595  0.90771253     0.01400
H308        H  0.32298504  0.55683299  0.84835220     0.09000
H309        H  0.26236332  0.49762047  0.91726818     0.08100
N310        N  0.38917968  0.45689909  0.89109780    -0.35700
N311        N  0.39248046  0.42649122  0.91808026    -0.27900
C312        C  0.41553674  0.42689934  0.94131598    -0.03200
C313        C  0.42746064  0.45870950  0.92792460     0.05400
C314        C  0.41010704  0.47631329  0.89485704     0.03500
H315        H  0.42172676  0.40797091  0.97261936     0.08600
H316        H  0.41071501  0.50430294  0.88471933     0.07500
N317        N  0.26243588  0.57557016  0.75852940    -0.36200
N318        N  0.25597555  0.62638623  0.84678873    -0.56800
N319        N  0.25180445  0.68178859  0.75922792    -0.36200
N320        N  0.25598983  0.62658745  0.67089311    -0.56800
C321        C  0.26033677  0.55455725  0.80402140     0.27400
C322        C  0.26045822  0.55471828  0.71279889     0.27400
C323        C  0.24517627  0.70055290  0.80582941     0.27400
C324        C  0.24509422  0.70059941  0.71273085     0.27400
C325        C  0.26772161  0.60009876  0.87547859     0.36000
C326        C  0.25905081  0.65616093  0.87756504     0.36000
C327        C  0.26804150  0.60060572  0.64219300     0.36000
C328        C  0.25941566  0.65660809  0.64100799     0.36000
C329        C  0.25562613  0.51997182  0.78713021    -0.21500
C330        C  0.25571787  0.52007551  0.72922213    -0.21500
C331        C  0.23431233  0.73217922  0.78866866    -0.21500
C332        C  0.23424667  0.73219737  0.73003384    -0.21500
C333        C  0.27761095  0.61283510  0.92523161    -0.22600
C334        C  0.27194340  0.64828857  0.92661250    -0.22600
C335        C  0.27850951  0.61380337  0.59335329    -0.22600
C336        C  0.27293168  0.64926859  0.59262853    -0.22600
C337        C  0.26940206  0.56470409  0.85698502    -0.17900
C338        C  0.26954674  0.56510428  0.66000873    -0.17900
C339        C  0.25012661  0.69049405  0.65572183    -0.17900
C340        C  0.25017364  0.69033895  0.86282763    -0.17900
H341        H  0.25422890  0.49660420  0.81332999     0.15000
H342        H  0.25443358  0.49682730  0.70270640     0.15000
H343        H  0.22744025  0.75322914  0.81554104     0.15000
H344        H  0.22734526  0.75327644  0.70325877     0.15000
H345        H  0.28798045  0.59823765  0.95678773     0.13300
H346        H  0.27770205  0.66664301  0.95861391     0.13300
H347        H  0.28930141  0.59954187  0.56213466     0.13300
H348        H  0.27923405  0.66801192  0.56173294     0.13300
H349        H  0.27087888  0.60042710  0.75871999     0.26500
H350        H  0.26251867  0.65886277  0.75912693     0.26500
C351        C  0.54975216  0.47916597  0.96749524    -0.10500
C352        C  0.56220276  0.50140264  0.00514048    -0.04300
C353        C  0.54966757  0.52360558  0.04269008    -0.10500
C354        C  0.52321146  0.52391561  0.04285800     0.10500
C355        C  0.50997346  0.50125822  0.00507756    -0.02300
C356        C  0.52329166  0.47868983  0.96729639     0.10300
C357        C  0.50981572  0.45668122  0.93040116    -0.12300
C358        C  0.48369302  0.45657879  0.93042983    -0.12300
C359        C  0.47014050  0.47850209  0.96732466     0.10300
C360        C  0.48337935  0.50118342  0.00506184    -0.02300
C361        C  0.50966553  0.54585294  0.07972946    -0.12400
C362        C  0.48354551  0.54579705  0.07968588    -0.12400
C363        C  0.47006626  0.52378976  0.04278574     0.10500
C364        C  0.44360779  0.52335358  0.04256500    -0.10500
C365        C  0.43114073  0.50104513  0.00501948    -0.04300
C366        C  0.44368027  0.47878794  0.96751902    -0.10500
H367        H  0.51945374  0.43930108  0.90129381     0.07700
H368        H  0.47411698  0.43912107  0.90133545     0.07700
H369        H  0.51924567  0.56329566  0.10884036     0.07900
H370        H  0.47391378  0.56320351  0.10876364     0.07900
H371        H  0.58248152  0.50146471  0.00516925     0.04400
H372        H  0.41086324  0.50098864  0.00500518     0.04400
N373        N  0.82837934  0.86376538  0.57396405    -0.26900
N374        N  0.80751159  0.88179966  0.58165293    -0.34800
C375        C  0.78783608  0.86018152  0.57825441     0.01400
C376        C  0.79613642  0.82650188  0.56654144     0.07500
C377        C  0.82209910  0.82948782  0.56376302    -0.05600
H378        H  0.76863556  0.86904438  0.57996125     0.08100
H379        H  0.83522606  0.80873173  0.55312641     0.09300
Cu380      Cu  0.80445334  0.93547779  0.58831818     0.44200
Cu381      Cu  0.86324559  0.89012169  0.57790272     0.42000
Cu382      Cu  0.85489803  0.98193670  0.63613886     0.43900
N383        N  0.80152433  0.98850708  0.60305921    -0.34300
N384        N  0.82037751  0.00641182  0.62443064    -0.28600
C385        C  0.81220550  0.03885646  0.63909116    -0.04700
C386        C  0.78695713  0.04126192  0.62607832     0.07600
C387        C  0.78087858  0.00869394  0.60326235     0.01400
H388        H  0.82310260  0.05800179  0.66253317     0.09000
H389        H  0.76234177  0.99902078  0.59369154     0.08100
N390        N  0.88907379  0.95780490  0.61918040    -0.35700
N391        N  0.89223123  0.92736313  0.59220334    -0.27900
C392        C  0.91525913  0.92759020  0.56882278    -0.03200
C393        C  0.92731243  0.95932063  0.58208816     0.05400
C394        C  0.91006204  0.97707529  0.61523063     0.03500
H395        H  0.92134237  0.90859742  0.53751110     0.08600
H396        H  0.91078814  0.00506221  0.62534880     0.07500
N397        N  0.82710369  0.86560361  0.94293639    -0.26900
N398        N  0.80616602  0.88353932  0.93555578    -0.34800
C399        C  0.78655004  0.86186051  0.94002182     0.01400
C400        C  0.79502397  0.82828300  0.95192910     0.07500
C401        C  0.82096929  0.83138684  0.95385882    -0.05600
H402        H  0.76731226  0.87055910  0.93832716     0.08100
H403        H  0.83421546  0.81071091  0.96412420     0.09300
Cu404      Cu  0.80312815  0.93708670  0.92592147     0.44200
Cu405      Cu  0.86200832  0.89155641  0.93709717     0.42000
Cu406      Cu  0.85432887  0.98196456  0.87520367     0.43900
N407        N  0.80067997  0.98961552  0.90661812    -0.34300
N408        N  0.81976789  0.00673336  0.88460457    -0.28600
C409        C  0.81187596  0.03883835  0.86751692    -0.04700
C410        C  0.78658754  0.04184099  0.87957697     0.07600
C411        C  0.78014528  0.00999016  0.90429248     0.01400
H412        H  0.82304895  0.05730317  0.84337416     0.09000
H413        H  0.76149959  0.00086415  0.91413516     0.08100
N414        N  0.88845067  0.95776271  0.89259102    -0.35700
N415        N  0.89138654  0.92767853  0.92062842    -0.27900
C416        C  0.91451436  0.92767053  0.94344596    -0.03200
C417        C  0.92689192  0.95890227  0.92879531     0.05400
C418        C  0.90968859  0.97657850  0.89533920     0.03500
H419        H  0.92047189  0.90904522  0.97543169     0.08600
H420        H  0.91067997  0.00440075  0.88423927     0.07500
N421        N  0.76242846  0.07706104  0.75221229    -0.36200
N422        N  0.75620466  0.12783138  0.66364183    -0.56800
N423        N  0.75227257  0.18337680  0.75093165    -0.36200
N424        N  0.75622110  0.12823736  0.83962060    -0.56800
C425        C  0.76035033  0.05601841  0.70675469     0.27400
C426        C  0.76038571  0.05625816  0.79799583     0.27400
C427        C  0.74570870  0.20214330  0.70429060     0.27400
C428        C  0.74572821  0.20233770  0.79738119     0.27400
C429        C  0.76795390  0.10145676  0.63518625     0.36000
C430        C  0.75938620  0.15753324  0.63274493     0.36000
C431        C  0.76821117  0.10221590  0.86836084     0.36000
C432        C  0.75996877  0.15832601  0.86912854     0.36000
C433        C  0.75557237  0.02146124  0.72370878    -0.21500
C434        C  0.75560397  0.02161623  0.78162043    -0.21500
C435        C  0.73506707  0.23393856  0.72138394    -0.21500
C436        C  0.73506556  0.23404966  0.78002128    -0.21500
C437        C  0.77796111  0.11407257  0.58546440    -0.22600
C438        C  0.77234899  0.14953990  0.58383463    -0.22600
C439        C  0.77895563  0.11547460  0.91685914    -0.22600
C440        C  0.77363776  0.15101842  0.91729566    -0.22600
C441        C  0.76951967  0.06608624  0.65383302    -0.17900
C442        C  0.76949626  0.06664935  0.85078184    -0.17900
C443        C  0.75077163  0.19224289  0.85437527    -0.17900
C444        C  0.75058827  0.19176915  0.64731482    -0.17900
H445        H  0.75418246  0.99806816  0.69756352     0.15000
H446        H  0.75427750  0.99838987  0.80817247     0.15000
H447        H  0.72831378  0.25504296  0.69446642     0.15000
H448        H  0.72834423  0.25526747  0.80675392     0.15000
H449        H  0.78836597  0.09938319  0.55407545     0.13300
H450        H  0.77818964  0.16781499  0.55176148     0.13300
H451        H  0.78980287  0.10120973  0.94797498     0.13300
H452        H  0.78022423  0.16982986  0.94779916     0.13300
H453        H  0.77092303  0.10188055  0.75196813     0.26500
H454        H  0.76283775  0.16031176  0.75110193     0.26500
N455        N  0.82751087  0.13793971  0.06714655    -0.26900
N456        N  0.80656429  0.12001853  0.07449715    -0.34800
C457        C  0.78696251  0.14174073  0.07021590     0.01400
C458        C  0.79545012  0.17533347  0.05845267     0.07500
C459        C  0.82139325  0.17218952  0.05641577    -0.05600
H460        H  0.76771966  0.13306846  0.07194022     0.08100
H461        H  0.83464842  0.19286779  0.04622364     0.09300
Cu462      Cu  0.80347482  0.06644729  0.08396774     0.44200
Cu463      Cu  0.86240257  0.11193227  0.07288835     0.42000
Cu464      Cu  0.85450205  0.02180014  0.13567036     0.43900
N465        N  0.80097468  0.01394220  0.10352321    -0.34300
N466        N  0.82001098  0.99692216  0.12594525    -0.28600
C467        C  0.81211139  0.96483493  0.14309153    -0.04700
C468        C  0.78686684  0.96172557  0.13063416     0.07600
C469        C  0.78045925  0.99351551  0.10564869     0.01400
H470        H  0.82323218  0.94646720  0.16754423     0.09000
H471        H  0.76182930  0.00258069  0.09551423     0.08100
N472        N  0.88866646  0.04576014  0.11805761    -0.35700
N473        N  0.89168010  0.07569072  0.08964997    -0.27900
C474        C  0.91479011  0.07542653  0.06675189    -0.03200
C475        C  0.92706797  0.04417779  0.08174097     0.05400
C476        C  0.90983304  0.02677850  0.11545525     0.03500
H477        H  0.92078988  0.09385401  0.03451841     0.08600
H478        H  0.91073145  0.99899841  0.12685721     0.07500
N479        N  0.82876924  0.13999176  0.43644158    -0.26900
N480        N  0.80787969  0.12200402  0.42876840    -0.34800
C481        C  0.78822820  0.14366419  0.43221450     0.01400
C482        C  0.79656135  0.17732791  0.44393569     0.07500
C483        C  0.82252478  0.17428439  0.44667116    -0.05600
H484        H  0.76901871  0.13484222  0.43049982     0.08100
H485        H  0.83567642  0.19501445  0.45728041     0.09300
Cu486      Cu  0.80474333  0.06832725  0.42198363     0.44200
Cu487      Cu  0.86360510  0.11353158  0.43241260     0.42000
Cu488      Cu  0.85502840  0.02185236  0.37369856     0.43900
N489        N  0.80171586  0.01530465  0.40714201    -0.34300
N490        N  0.82053004  0.99738624  0.38563382    -0.28600
C491        C  0.81232888  0.96494908  0.37101810    -0.04700
C492        C  0.78709658  0.96255341  0.38419719     0.07600
C493        C  0.78105997  0.99513382  0.40704822     0.01400
H494        H  0.82318709  0.94580799  0.34747572     0.09000
H495        H  0.76253718  0.00482715  0.41670382     0.08100
N496        N  0.88925049  0.04579897  0.39069981    -0.35700
N497        N  0.89248910  0.07614318  0.41790585    -0.27900
C498        C  0.91551027  0.07570066  0.44131447    -0.03200
C499        C  0.92747122  0.04393660  0.42781431     0.05400
C500        C  0.91017788  0.02638774  0.39452484     0.03500
H501        H  0.92164416  0.09455805  0.47278257     0.08600
H502        H  0.91081678  0.99842318  0.38422184     0.07500
N503        N  0.76260481  0.92673997  0.25804201    -0.36200
N504        N  0.75620651  0.87553705  0.17073686    -0.56800
N505        N  0.75194494  0.82055463  0.25955657    -0.36200
N506        N  0.75609211  0.87613417  0.34669969    -0.56800
C507        C  0.76062117  0.94750096  0.21219863     0.27400
C508        C  0.76054156  0.94784694  0.30342664     0.27400
C509        C  0.74529030  0.80163384  0.21313819     0.27400
C510        C  0.74522859  0.80192364  0.30622525     0.27400
C511        C  0.76832857  0.90142781  0.14197935     0.36000
C512        C  0.75984637  0.84537963  0.14133361     0.36000
C513        C  0.76787983  0.90246172  0.37519196     0.36000
C514        C  0.75906385  0.84645511  0.37775962     0.36000
C515        C  0.75590611  0.98218294  0.22845889    -0.21500
C516        C  0.75585031  0.98240573  0.28636912    -0.21500
C517        C  0.73438231  0.77010493  0.23054932    -0.21500
C518        C  0.73436035  0.77027355  0.28918277    -0.21500
C519        C  0.77906428  0.88801934  0.09357658    -0.22600
C520        C  0.77359704  0.85251325  0.09322271    -0.22600
C521        C  0.77770189  0.88985145  0.42510020    -0.22600
C522        C  0.77192825  0.85443415  0.42680926    -0.22600
C523        C  0.76971789  0.93700931  0.15945827    -0.17900
C524        C  0.76961589  0.93779182  0.35642758    -0.17900
C525        C  0.75016527  0.81226161  0.36319182    -0.17900
C526        C  0.75046013  0.81157203  0.15613495    -0.17900
H527        H  0.75463710  0.00538038  0.20182669     0.15000
H528        H  0.75449308  0.00582881  0.31245826     0.15000
H529        H  0.72751472  0.74896380  0.20385301     0.15000
H530        H  0.72743430  0.74930116  0.31613586     0.15000
H531        H  0.79000004  0.90215817  0.06247486     0.13300
H532        H  0.78014171  0.83360389  0.06283042     0.13300
H533        H  0.78807385  0.90451418  0.45657713     0.13300
H534        H  0.77758708  0.83617780  0.45905833     0.13300
H535        H  0.77103321  0.90187539  0.25837898     0.26500
H536        H  0.76268667  0.84345146  0.25935900     0.26500
C537        C  0.94359083  0.97923522  0.54240438    -0.10500
C538        C  0.93112603  0.00156259  0.50487781    -0.04300
C539        C  0.94367409  0.02380489  0.46736747    -0.10500
C540        C  0.97013320  0.02404140  0.46711751     0.10500
C541        C  0.98336754  0.00134483  0.50483398    -0.02300
C542        C  0.97005048  0.97876318  0.54258415     0.10300
C543        C  0.98352788  0.95674619  0.57947415    -0.12300
C544        C  0.00964809  0.95665911  0.57948208    -0.12300
C545        C  0.02319695  0.97857458  0.54258537     0.10300
C546        C  0.00996136  0.00123898  0.50481374    -0.02300
C547        C  0.98368810  0.04594084  0.43019266    -0.12400
C548        C  0.00980926  0.04581086  0.43013253    -0.12400
C549        C  0.02328135  0.02379513  0.46702156     0.10500
C550        C  0.04973996  0.02330296  0.46720299    -0.10500
C551        C  0.06219058  0.00105101  0.50482815    -0.04300
C552        C  0.04965327  0.97886363  0.54239693    -0.10500
H553        H  0.97389468  0.93935792  0.60857517     0.07700
H554        H  0.01922572  0.93921121  0.60858862     0.07700
H555        H  0.97411559  0.06340624  0.40110476     0.07900
H556        H  0.01944863  0.06317774  0.40100880     0.07900
H557        H  0.91084878  0.00164977  0.50488867     0.04400
H558        H  0.08246919  0.00097788  0.50484589     0.04400
N559        N  0.16491145  0.86356985  0.57197902    -0.26900
N560        N  0.18583892  0.88166354  0.57837706    -0.34800
C561        C  0.20546371  0.85990853  0.57552142     0.01400
C562        C  0.19703454  0.82607636  0.56547190     0.07500
C563        C  0.17107845  0.82911962  0.56313740    -0.05600
H564        H  0.22468900  0.86871244  0.57635810     0.08100
H565        H  0.15786568  0.80824693  0.55368814     0.09300
Cu566      Cu  0.18892979  0.93542876  0.58288469     0.44200
Cu567      Cu  0.13006752  0.88988977  0.57587527     0.42000
Cu568      Cu  0.13863847  0.98150099  0.63335265     0.43900
N569        N  0.19176311  0.98841021  0.59801008    -0.34300
N570        N  0.17301694  0.00608037  0.62035508    -0.28600
C571        C  0.18124557  0.03836955  0.63561534    -0.04700
C572        C  0.20642276  0.04090879  0.62208391     0.07600
C573        C  0.21240769  0.00860025  0.59825052     0.01400
H574        H  0.17048802  0.05720960  0.65999164     0.09000
H575        H  0.23091476  0.99899554  0.58822043     0.08100
N576        N  0.10434965  0.95732474  0.61795348    -0.35700
N577        N  0.10108360  0.92694273  0.59091247    -0.27900
C578        C  0.07793592  0.92714685  0.56817234    -0.03200
C579        C  0.06590506  0.95881291  0.58193507     0.05400
C580        C  0.08330104  0.97651593  0.61479333     0.03500
H581        H  0.07173826  0.90823985  0.53684244     0.08600
H582        H  0.08261497  0.00449621  0.62497707     0.07500
N583        N  0.16475608  0.86335895  0.94125450    -0.26900
N584        N  0.18567009  0.88104588  0.93221952    -0.34800
C585        C  0.20527938  0.85939911  0.93705417     0.01400
C586        C  0.19687118  0.82608406  0.95089604     0.07500
C587        C  0.17092869  0.82932019  0.95359745    -0.05600
H588        H  0.22451019  0.86800645  0.93419820     0.08100
H589        H  0.15773111  0.80889163  0.96532701     0.09300
Cu590      Cu  0.18882807  0.93440467  0.92026831     0.44200
Cu591      Cu  0.12992367  0.88967801  0.93571910     0.42000
Cu592      Cu  0.13781710  0.98001055  0.87187519     0.43900
N593        N  0.19163226  0.98697850  0.90133586    -0.34300
N594        N  0.17255089  0.00447526  0.88009634    -0.28600
C595        C  0.18053028  0.03669827  0.86369712    -0.04700
C596        C  0.20587207  0.03940295  0.87553285     0.07600
C597        C  0.21223782  0.00721881  0.89927841     0.01400
H598        H  0.16933909  0.05554654  0.84035638     0.09000
H599        H  0.23086081  0.99787704  0.90882208     0.08100
N600        N  0.10373815  0.95632403  0.89138178    -0.35700
N601        N  0.10077187  0.92638380  0.91983784    -0.27900
C602        C  0.07780538  0.92685820  0.94348734    -0.03200
C603        C  0.06557938  0.95822481  0.92892069     0.05400
C604        C  0.08269116  0.97552737  0.89480401     0.03500
H605        H  0.07188798  0.90841445  0.97577408     0.08600
H606        H  0.08181783  0.00330147  0.88336005     0.07500
N607        N  0.23058279  0.07551775  0.74904763    -0.36200
N608        N  0.23736104  0.12689302  0.66174037    -0.56800
N609        N  0.24125793  0.18169953  0.75077772    -0.36200
N610        N  0.23674720  0.12593848  0.83768962    -0.56800
C611        C  0.23292993  0.05486229  0.70318427     0.27400
C612        C  0.23225130  0.05430117  0.79439526     0.27400
C613        C  0.24785679  0.20079708  0.70449914     0.27400
C614        C  0.24799489  0.20017777  0.79758399     0.27400
C615        C  0.22537393  0.10093560  0.63283385     0.36000
C616        C  0.23359782  0.15706290  0.63240984     0.36000
C617        C  0.22480661  0.09969111  0.86603612     0.36000
C618        C  0.23393686  0.15558731  0.86886412     0.36000
C619        C  0.23751378  0.02013925  0.71950579    -0.21500
C620        C  0.23703913  0.01977345  0.77740271    -0.21500
C621        C  0.25873215  0.23229559  0.72213165    -0.21500
C622        C  0.25882144  0.23190770  0.78076174    -0.21500
C623        C  0.21463872  0.11431082  0.58441184    -0.22600
C624        C  0.21994636  0.14985946  0.58419969    -0.22600
C625        C  0.21501959  0.11232216  0.91596261    -0.22600
C626        C  0.22098839  0.14767155  0.91783920    -0.22600
C627        C  0.22394610  0.06535823  0.65033419    -0.17900
C628        C  0.22304524  0.06437216  0.84725544    -0.17900
C629        C  0.24307998  0.18967687  0.85449534    -0.17900
C630        C  0.24271349  0.19098796  0.64743353    -0.17900
H631        H  0.23899817  0.99698237  0.69284990     0.15000
H632        H  0.23815775  0.99630328  0.80344797     0.15000
H633        H  0.26555912  0.25353889  0.69558875     0.15000
H634        H  0.26574540  0.25280595  0.80786390     0.15000
H635        H  0.20376556  0.10011938  0.55326059     0.13300
H636        H  0.21333690  0.16875915  0.55387806     0.13300
H637        H  0.20457625  0.09771493  0.94738277     0.13300
H638        H  0.21541207  0.16592329  0.95017218     0.13300
H639        H  0.22216394  0.10038780  0.74915562     0.26500
H640        H  0.23054597  0.15877967  0.75040514     0.26500
N641        N  0.16546907  0.13755327  0.43779225    -0.26900
N642        N  0.18635929  0.11933016  0.43171142    -0.34800
C643        C  0.20603577  0.14099368  0.43455391     0.01400
C644        C  0.19767023  0.17489536  0.44427495     0.07500
C645        C  0.17170697  0.17199231  0.44642829    -0.05600
H646        H  0.22524100  0.13209324  0.43395145     0.08100
H647        H  0.15853142  0.19295927  0.45561217     0.09300
Cu648      Cu  0.18928822  0.06554247  0.42754511     0.44200
Cu649      Cu  0.13055178  0.11146780  0.43373650     0.42000
Cu650      Cu  0.13881249  0.01978633  0.37670737     0.43900
N651        N  0.19192984  0.01257359  0.41222637    -0.34300
N652        N  0.17314166  0.99504982  0.38975418    -0.28600
C653        C  0.18129781  0.96276193  0.37429986    -0.04700
C654        C  0.20646582  0.96007684  0.38782602     0.07600
C655        C  0.21252801  0.99228902  0.41186673     0.01400
H656        H  0.17050112  0.94403056  0.34980027     0.09000
H657        H  0.23105831  0.00178093  0.42195095     0.08100
N658        N  0.10457810  0.04423320  0.39177615    -0.35700
N659        N  0.10141145  0.07469112  0.41865308    -0.27900
C660        C  0.07823716  0.07474199  0.44125312    -0.03200
C661        C  0.06608016  0.04315653  0.42758562     0.05400
C662        C  0.08343687  0.02524218  0.39488983     0.03500
H663        H  0.07209504  0.09375827  0.47247109     0.08600
H664        H  0.08263955  0.99724904  0.38483732     0.07500
N665        N  0.16524228  0.13785689  0.06869990    -0.26900
N666        N  0.18612526  0.12001105  0.07730680    -0.34800
C667        C  0.20579139  0.14153847  0.07229389     0.01400
C668        C  0.19744688  0.17493798  0.05878177     0.07500
C669        C  0.17148824  0.17187858  0.05644858    -0.05600
H670        H  0.22500301  0.13280602  0.07483984     0.08100
H671        H  0.15832093  0.19242654  0.04507480     0.09300
Cu672      Cu  0.18912284  0.06662978  0.08912113     0.44200
Cu673      Cu  0.13032982  0.11180093  0.07472375     0.42000
Cu674      Cu  0.13798851  0.02140774  0.13820824     0.43900
N675        N  0.19175593  0.01408662  0.10831583    -0.34300
N676        N  0.17264668  0.99675427  0.12977571    -0.28600
C677        C  0.18055177  0.96452898  0.14633112    -0.04700
C678        C  0.20587014  0.96165762  0.13438038     0.07600
C679        C  0.21230767  0.99373813  0.11040292     0.01400
H680        H  0.16933396  0.94580032  0.16984746     0.09000
H681        H  0.23094851  0.00294799  0.10071631     0.08100
N682        N  0.10394800  0.04534030  0.11910241    -0.35700
N683        N  0.10104786  0.07534244  0.09078191    -0.27900
C684        C  0.07804922  0.07506863  0.06728260    -0.03200
C685        C  0.06573500  0.04375942  0.08178227     0.05400
C686        C  0.08282853  0.02629221  0.11574770     0.03500
H687        H  0.07216266  0.09359421  0.03508520     0.08600
H688        H  0.08187841  0.99850349  0.12707141     0.07500
N689        N  0.23058918  0.92542563  0.26080502    -0.36200
N690        N  0.23651366  0.87495828  0.17207929    -0.56800
N691        N  0.24078602  0.81910042  0.25893975    -0.36200
N692        N  0.23712261  0.87393544  0.34805634    -0.56800
C693        C  0.23224607  0.94664601  0.21546942     0.27400
C694        C  0.23293773  0.94605662  0.30668901     0.27400
C695        C  0.24740563  0.80057181  0.21211575     0.27400
C696        C  0.24724558  0.79991074  0.30520497     0.27400
C697        C  0.22463106  0.90129046  0.14381417     0.36000
C698        C  0.23355653  0.84533802  0.14090552     0.36000
C699        C  0.22523026  0.89997155  0.37698019     0.36000
C700        C  0.23319834  0.84377868  0.37731098     0.36000
C701        C  0.23704382  0.98116968  0.23248891    -0.21500
C702        C  0.23752825  0.98078577  0.29038820    -0.21500
C703        C  0.25801013  0.76867912  0.22891158    -0.21500
C704        C  0.25790659  0.76826470  0.28754679    -0.21500
C705        C  0.21473460  0.88873345  0.09394356    -0.22600
C706        C  0.22057512  0.85334588  0.09200670    -0.22600
C707        C  0.21440527  0.88665168  0.42534186    -0.22600
C708        C  0.21954812  0.85106101  0.42549503    -0.22600
C709        C  0.22299240  0.93661515  0.16262279    -0.17900
C710        C  0.22392636  0.93556745  0.35952737    -0.17900
C711        C  0.24217181  0.80978309  0.36227882    -0.17900
C712        C  0.24257989  0.81117864  0.15520955    -0.17900
H713        H  0.23813965  0.00464960  0.20645812     0.15000
H714        H  0.23900099  0.00393663  0.31706252     0.15000
H715        H  0.26479075  0.74769651  0.20178949     0.15000
H716        H  0.26457820  0.74691391  0.31407420     0.15000
H717        H  0.20429526  0.90341408  0.06260169     0.13300
H718        H  0.21489123  0.83513865  0.05968682     0.13300
H719        H  0.20356875  0.90090749  0.45648386     0.13300
H720        H  0.21283336  0.83219870  0.45576753     0.13300
H721        H  0.22212962  0.90053041  0.26067682     0.26500
H722        H  0.23020874  0.84223113  0.25933391     0.26500
C723        C  0.94333950  0.02376287  0.04273257    -0.10500
C724        C  0.93080025  0.00141318  0.00542283    -0.04300
C725        C  0.94325280  0.97903919  0.96799907    -0.10500
C726        C  0.96971907  0.97861037  0.96771774     0.10500
C727        C  0.98304217  0.00127036  0.00535191    -0.02300
C728        C  0.96980211  0.02402491  0.04297937     0.10300
C729        C  0.98335414  0.04601854  0.07976080    -0.12300
C730        C  0.00947906  0.04595486  0.07972497    -0.12300
C731        C  0.02296198  0.02388653  0.04291797     0.10300
C732        C  0.00964242  0.00119157  0.00533870    -0.02300
C733        C  0.98319719  0.95654868  0.93090348    -0.12400
C734        C  0.00932379  0.95644370  0.93093302    -0.12400
C735        C  0.02288257  0.97841696  0.96774819     0.10500
C736        C  0.04934974  0.97864365  0.96803567    -0.10500
C737        C  0.06189629  0.00103728  0.00530440    -0.04300
C738        C  0.04942908  0.02349199  0.04261694    -0.10500
H739        H  0.97377469  0.06351230  0.10879496     0.07700
H740        H  0.01911260  0.06340665  0.10873130     0.07700
H741        H  0.97355763  0.93912389  0.90186543     0.07900
H742        H  0.01889871  0.93893964  0.90190788     0.07900
H743        H  0.91052053  0.00147616  0.00545305     0.04400
H744        H  0.08217465  0.00097499  0.00528625     0.04400
O745        O  0.73710826  0.70095942  0.46283971    -0.72600
O746        O  0.78757730  0.76968989  0.52507225    -0.73500
O747        O  0.76168319  0.70851047  0.56834546    -0.62200
O748        O  0.76245785  0.76169425  0.41889507    -0.70600
O749        O  0.73104339  0.79463509  0.45003437    -0.70100
O750        O  0.73032871  0.74159266  0.59943334    -0.61400
O751        O  0.75576471  0.80220568  0.55539658    -0.73900
O752        O  0.70523899  0.73331200  0.49328302    -0.72700
Cu753      Cu  0.76325315  0.73399297  0.49277143     1.04600
Cu754      Cu  0.72954349  0.76915014  0.52556527     1.04300
C755        C  0.71359647  0.70557256  0.46881203     0.93600
C756        C  0.77927579  0.79750141  0.54938430     0.92800
C757        C  0.74568887  0.71602724  0.60673517     0.84900
C758        C  0.74705765  0.78723685  0.41164777     0.91200
O759        O  0.23723365  0.80121638  0.55429233    -0.72600
O760        O  0.28694217  0.73109496  0.49267257    -0.73500
O761        O  0.26153094  0.79226218  0.44868371    -0.62200
O762        O  0.26231659  0.74060412  0.59915967    -0.70600
O763        O  0.23063788  0.70772939  0.56919967    -0.70100
O764        O  0.22977838  0.75957224  0.41862145    -0.61400
O765        O  0.25480303  0.69884885  0.46337122    -0.73900
O766        O  0.20511858  0.76885968  0.52516046    -0.72700
Cu767      Cu  0.26306607  0.76749576  0.52469040     1.04600
Cu768      Cu  0.22901860  0.73253941  0.49311638     1.04300
C769        C  0.21368037  0.79674303  0.54880208     0.93600
C770        C  0.27835510  0.70329151  0.46881255     0.92800
C771        C  0.24537317  0.78478514  0.41065431     0.84900
C772        C  0.24679341  0.71533124  0.60719837     0.91200
O773        O  0.26248491  0.74093253  0.91851374    -0.72600
O774        O  0.26172644  0.79394972  0.06816574    -0.73500
O775        O  0.28759112  0.73281898  0.02473111    -0.62200
O776        O  0.23716006  0.80169121  0.96263400    -0.70600
O777        O  0.20527999  0.76933710  0.99300776    -0.70100
O778        O  0.25575513  0.70030087  0.05491977    -0.61400
O779        O  0.23036069  0.76084606  0.09913688    -0.73900
O780        O  0.23103572  0.70803547  0.94958263    -0.72700
Cu781      Cu  0.26328967  0.76857261  0.99248998     1.04600
Cu782      Cu  0.22955863  0.73342044  0.02517734     1.04300
C783        C  0.24706201  0.71541850  0.91122000     0.93600
C784        C  0.24573678  0.78637516  0.10654147     0.92800
C785        C  0.27926982  0.70499716  0.04897954     0.84900
C786        C  0.21364525  0.79709951  0.96861682     0.91200
O787        O  0.70536981  0.73319982  0.02564655    -0.72600
O788        O  0.75488944  0.80344303  0.96396700    -0.73500
O789        O  0.72988849  0.74278155  0.91904593    -0.62200
O790        O  0.73085187  0.79431489  0.06981837    -0.70600
O791        O  0.76260104  0.76146839  0.09948134    -0.70100
O792        O  0.76168896  0.71005870  0.94876281    -0.61400
O793        O  0.78708978  0.77118691  0.99290156    -0.73900
O794        O  0.73752834  0.70081716  0.05446575    -0.72700
Cu795      Cu  0.72918307  0.76964183  0.99366829     1.04600
Cu796      Cu  0.76329189  0.73467840  0.02489002     1.04300
C797        C  0.71396853  0.70526249  0.04905790     0.93600
C798        C  0.77844942  0.79902631  0.96924498     0.92800
C799        C  0.74548778  0.71760655  0.91085960     0.84900
C800        C  0.74706917  0.78671539  0.10767255     0.91200
O801        O  0.25635009  0.30065599  0.95472505    -0.72600
O802        O  0.20589440  0.23165544  0.01669296    -0.73500
O803        O  0.23168588  0.29287123  0.06009996    -0.62200
O804        O  0.23093616  0.24007896  0.91051882    -0.70600
O805        O  0.26232352  0.20698441  0.94140335    -0.70100
O806        O  0.26312427  0.25992803  0.09110954    -0.61400
O807        O  0.23776561  0.19923382  0.04694525    -0.73900
O808        O  0.28820470  0.26816143  0.98487204    -0.72700
Cu809      Cu  0.23017050  0.26752665  0.98448613     1.04600
Cu810      Cu  0.26390672  0.23235313  0.01709150     1.04300
C811        C  0.27986678  0.29599898  0.96068311     0.93600
C812        C  0.21424973  0.20387926  0.04105130     0.92800
C813        C  0.24770394  0.28543481  0.09845926     0.84900
C814        C  0.24629946  0.21453249  0.90309020     0.91200
O815        O  0.73753131  0.30295332  0.54753037    -0.72600
O816        O  0.78802361  0.23420087  0.48531104    -0.73500
O817        O  0.76209880  0.29540948  0.44200331    -0.62200
O818        O  0.76291491  0.24228178  0.59151686    -0.70600
O819        O  0.73150441  0.20931666  0.56041935    -0.70100
O820        O  0.73074198  0.26230285  0.41099348    -0.61400
O821        O  0.75620332  0.20168104  0.45504900    -0.73900
O822        O  0.70567284  0.27055204  0.51715557    -0.72700
Cu823      Cu  0.76369210  0.26993256  0.51759656     1.04600
Cu824      Cu  0.72998422  0.23474807  0.48486905     1.04300
C825        C  0.71401878  0.29829460  0.54162871     0.93600
C826        C  0.77971589  0.20636814  0.46105882     0.92800
C827        C  0.74608009  0.28789322  0.40366579     0.84900
C828        C  0.74750759  0.21675575  0.59881127     0.91200
O829        O  0.23129599  0.29315354  0.44063900    -0.72600
O830        O  0.23040209  0.24126505  0.59115111    -0.73500
O831        O  0.25543657  0.30203410  0.54649070    -0.62200
O832        O  0.20578191  0.23206998  0.48459125    -0.70600
O833        O  0.23789057  0.19968766  0.45548309    -0.70100
O834        O  0.28759543  0.26983233  0.51718929    -0.61400
O835        O  0.26216244  0.20857738  0.56112914    -0.73900
O836        O  0.26297837  0.26028931  0.41066892    -0.72700
Cu837      Cu  0.22966796  0.26834458  0.51669663     1.04600
Cu838      Cu  0.26372221  0.23339687  0.48513712     1.04300
C839        C  0.24743841  0.28553944  0.40261983     0.93600
C840        C  0.24597445  0.21602125  0.59910909     0.92800
C841        C  0.27899105  0.29763641  0.54102759     0.84900
C842        C  0.21433815  0.20419161  0.46093648     0.91200
O843        O  0.70579330  0.27047164  0.98490273    -0.72600
O844        O  0.75531867  0.20025213  0.04664579    -0.73500
O845        O  0.73030348  0.26095944  0.09153341    -0.62200
O846        O  0.73126219  0.20941050  0.94081370    -0.70600
O847        O  0.76300837  0.24225175  0.91111643    -0.70100
O848        O  0.76210811  0.29367294  0.06181909    -0.61400
O849        O  0.78751728  0.23249559  0.01767640    -0.73900
O850        O  0.73795381  0.30285220  0.95608713    -0.72700
Cu851      Cu  0.72960547  0.23406385  0.01694262     1.04600
Cu852      Cu  0.76371470  0.26902030  0.98570348     1.04300
C853        C  0.71439400  0.29837898  0.96140918     0.93600
C854        C  0.77887896  0.20464249  0.04129756     0.92800
C855        C  0.74588712  0.28615850  0.09969301     0.84900
C856        C  0.74745193  0.21703964  0.90291788     0.91200
loop_ 
_geom_bond_atom_site_label_1 
_geom_bond_atom_site_label_2 
_geom_bond_distance 
_geom_bond_site_symmetry_2 
_ccdc_geom_bond_type 
N1            N2   1.321       .  A
N1            C5   1.357       .  A
N1           Cu9   2.117       .  S
N2            C3   1.335       .  A
N2           Cu8   2.038       .  S
C3            C4   1.374       .  A
C3            H6   1.082       .  S
C4            C5   1.396       .  A
C4          C825   1.475       .  S
C5            H7   1.082       .  S
Cu8          N11   2.037       .  S
Cu9          N19   2.120       .  S
Cu10         N12   2.086       .  S
Cu10         N18   2.085       .  S
N11          N12   1.317       .  A
N11          C15   1.343       .  A
N12          C13   1.345       .  A
C13          C14   1.390       .  A
C13          H16   1.082       .  S
C14          C15   1.380       .  A
C14          C69   1.477       .  S
C15          H17   1.082       .  S
N18          N19   1.325       .  A
N18          C22   1.342       .  A
N19          C20   1.352       .  A
C20          C21   1.395       .  A
C20          H23   1.082       .  S
C21          C22   1.386       .  A
C21         C167   1.487       .  S
C22          H24   1.083       .  S
N25          N26   1.321       .  A
N25          C29   1.356       .  A
N25         Cu33   2.116       .  S
N26          C27   1.335       .  A
N26         Cu32   2.036       .  S
C27          C28   1.374       .  A
C27          H30   1.082       .  S
C28          C29   1.396       .  A
C28         C853   1.474       .  S
C29          H31   1.082       .  S
Cu32         N35   2.034       .  S
Cu33         N43   2.118       .  S
Cu34         N36   2.085       .  S
Cu34         N42   2.083       .  S
N35          N36   1.317       .  A
N35          C39   1.342       .  A
N36          C37   1.344       .  A
C37          C38   1.389       .  A
C37          H40   1.082       .  S
C38          C39   1.380       .  A
C38          C70   1.476       .  S
C39          H41   1.082       .  S
N42          N43   1.324       .  A
N42          C46   1.342       .  A
N43          C44   1.352       .  A
C44          C45   1.395       .  A
C44          H47   1.082       .  S
C45          C46   1.387       .  A
C45         C351   1.487       .  S
C46          H48   1.083       .  S
N49          C54   1.344       .  A
N49          C53   1.343       .  A
N49          H81   1.041       .  S
N50          C57   1.357       .  A
N50          C58   1.349       .  A
N51          C56   1.359       .  A
N51          C55   1.359       .  A
N51          H82   1.039       .  S
N52          C59   1.356       .  A
N52          C60   1.348       .  A
C53          C61   1.387       .  A
C53          C69   1.401       .  A
C54          C70   1.400       .  A
C54          C62   1.387       .  A
C55          C63   1.388       .  A
C55          C72   1.432       .  A
C56          C71   1.430       .  A
C56          C64   1.387       .  A
C57          C69   1.408       .  A
C57          C65   1.380       .  A
C58          C72   1.417       .  A
C58          C66   1.386       .  A
C59          C67   1.380       .  A
C59          C70   1.405       .  A
C60          C68   1.384       .  A
C60          C71   1.413       .  A
C61          C62   1.374       .  A
C61          H73   1.081       .  S
C62          H74   1.081       .  S
C63          C64   1.391       .  A
C63          H75   1.082       .  S
C64          H76   1.082       .  S
C65          C66   1.371       .  A
C65          H77   1.083       .  S
C66          H78   1.073       .  S
C67          C68   1.369       .  A
C67          H79   1.082       .  S
C68          H80   1.073       .  S
C71         C799   1.494       .  S
C72         C757   1.496       .  S
N83          N84   1.321       .  A
N83          C87   1.357       .  A
N83         Cu91   2.117       .  S
N84          C85   1.335       .  A
N84         Cu90   2.039       .  S
C85          C86   1.374       .  A
C85          H88   1.082       .  S
C86          C87   1.396       .  A
C86         C755   1.475       .  S
C87          H89   1.082       .  S
Cu90         N93   2.038       .  S
Cu91        N101   2.119       .  S
Cu92         N94   2.086       .  S
Cu92        N100   2.084       .  S
N93          N94   1.317       .  A
N93          C97   1.343       .  A
N94          C95   1.345       .  A
C95          C96   1.390       .  A
C95          H98   1.082       .  S
C96          C97   1.381       .  A
C96         C151   1.478       .  S
C97          H99   1.082       .  S
N100        N101   1.325       .  A
N100        C104   1.342       .  A
N101        C102   1.352       .  A
C102        C103   1.395       .  A
C102        H105   1.082       .  S
C103        C104   1.386       .  A
C103        C165   1.486       .  S
C104        H106   1.082       .  S
N107        N108   1.321       .  A
N107        C111   1.356       .  A
N107       Cu115   2.116       .  S
N108        C109   1.335       .  A
N108       Cu114   2.036       .  S
C109        C110   1.374       .  A
C109        H112   1.082       .  S
C110        C111   1.396       .  A
C110        C797   1.474       .  S
C111        H113   1.082       .  S
Cu114       N117   2.034       .  S
Cu115       N125   2.119       .  S
Cu116       N118   2.084       .  S
Cu116       N124   2.082       .  S
N117        N118   1.317       .  A
N117        C121   1.342       .  A
N118        C119   1.344       .  A
C119        C120   1.389       .  A
C119        H122   1.082       .  S
C120        C121   1.380       .  A
C120        C152   1.476       .  S
C121        H123   1.082       .  S
N124        N125   1.324       .  A
N124        C128   1.342       .  A
N125        C126   1.352       .  A
C126        C127   1.395       .  A
C126        H129   1.082       .  S
C127        C128   1.386       .  A
C127        C353   1.486       .  S
C128        H130   1.083       .  S
N131        C136   1.344       .  A
N131        C135   1.344       .  A
N131        H163   1.040       .  S
N132        C139   1.357       .  A
N132        C140   1.349       .  A
N133        C138   1.360       .  A
N133        C137   1.359       .  A
N133        H164   1.037       .  S
N134        C141   1.356       .  A
N134        C142   1.348       .  A
C135        C143   1.387       .  A
C135        C151   1.400       .  A
C136        C152   1.400       .  A
C136        C144   1.387       .  A
C137        C145   1.388       .  A
C137        C154   1.432       .  A
C138        C153   1.430       .  A
C138        C146   1.387       .  A
C139        C151   1.408       .  A
C139        C147   1.380       .  A
C140        C154   1.417       .  A
C140        C148   1.386       .  A
C141        C149   1.380       .  A
C141        C152   1.405       .  A
C142        C150   1.384       .  A
C142        C153   1.414       .  A
C143        C144   1.374       .  A
C143        H155   1.081       .  S
C144        H156   1.081       .  S
C145        C146   1.391       .  A
C145        H157   1.082       .  S
C146        H158   1.082       .  S
C147        C148   1.371       .  A
C147        H159   1.083       .  S
C148        H160   1.073       .  S
C149        C150   1.369       .  A
C149        H161   1.082       .  S
C150        H162   1.073       .  S
C153        C855   1.495       .  S
C154        C827   1.496       .  S
C165        C166   1.395       .  A
C165        C170   1.418       .  A
C166        C167   1.395       .  A
C166        H185   1.086       .  S
C167        C168   1.418       .  A
C168        C169   1.427       .  A
C168        C175   1.406       .  A
C169        C170   1.427       .  A
C169        C174   1.425       .  A
C170        C171   1.406       .  A
C171        C172   1.400       .  A
C171        H181   1.083       .  S
C172        C173   1.406       .  A
C172        H182   1.083       .  S
C173        C174   1.427       .  A
C173        C180   1.418       .  A
C174        C177   1.427       .  A
C175        C176   1.400       .  A
C175        H183   1.083       .  S
C176        C177   1.406       .  A
C176        H184   1.083       .  S
C177        C178   1.418       .  A
C178        C179   1.394       .  A
C178        C289   1.486       .  S
C179        C180   1.394       .  A
C179        H186   1.086       .  S
C180        C207   1.486       .  S
N187        N188   1.321       .  A
N187        C191   1.356       .  A
N187       Cu195   2.115       .  S
N188        C189   1.335       .  A
N188       Cu194   2.037       .  S
C189        C190   1.374       .  A
C189        H192   1.082       .  S
C190        C191   1.396       .  A
C190        C770   1.474       .  S
C191        H193   1.082       .  S
Cu194       N197   2.036       .  S
Cu195       N205   2.118       .  S
Cu196       N198   2.086       .  S
Cu196       N204   2.084       .  S
N197        N198   1.317       .  A
N197        C201   1.343       .  A
N198        C199   1.344       .  A
C199        C200   1.389       .  A
C199        H202   1.082       .  S
C200        C201   1.380       .  A
C200        C256   1.476       .  S
C201        H203   1.082       .  S
N204        N205   1.324       .  A
N204        C208   1.342       .  A
N205        C206   1.352       .  A
C206        C207   1.395       .  A
C206        H209   1.082       .  S
C207        C208   1.387       .  A
C208        H210   1.083       .  S
N211        N212   1.321       .  A
N211        C215   1.357       .  A
N211       Cu219   2.117       .  S
N212        C213   1.335       .  A
N212       Cu218   2.037       .  S
C213        C214   1.374       .  A
C213        H216   1.082       .  S
C214        C215   1.397       .  A
C214        C785   1.475       .  S
C215        H217   1.082       .  S
Cu218       N221   2.036       .  S
Cu219       N229   2.120       .  S
Cu220       N222   2.085       .  S
Cu220       N228   2.083       .  S
N221        N222   1.316       .  A
N221        C225   1.343       .  A
N222        C223   1.345       .  A
C223        C224   1.390       .  A
C223        H226   1.082       .  S
C224        C225   1.381       .  A
C224        C255   1.477       .  S
C225        H227   1.082       .  S
N228        N229   1.325       .  A
N228        C232   1.342       .  A
N229        C230   1.353       .  A
C230        C231   1.395       .  A
C230        H233   1.082       .  S
C231        C232   1.386       .  A
C231        C364   1.487       .  S
C232        H234   1.083       .  S
N235        C240   1.344       .  A
N235        C239   1.343       .  A
N235        H267   1.041       .  S
N236        C243   1.357       .  A
N236        C244   1.349       .  A
N237        C242   1.360       .  A
N237        C241   1.360       .  A
N237        H268   1.038       .  S
N238        C245   1.356       .  A
N238        C246   1.348       .  A
C239        C247   1.387       .  A
C239        C255   1.401       .  A
C240        C256   1.400       .  A
C240        C248   1.386       .  A
C241        C249   1.388       .  A
C241        C258   1.431       .  A
C242        C257   1.431       .  A
C242        C250   1.387       .  A
C243        C255   1.407       .  A
C243        C251   1.380       .  A
C244        C258   1.417       .  A
C244        C252   1.385       .  A
C245        C253   1.380       .  A
C245        C256   1.405       .  A
C246        C254   1.385       .  A
C246        C257   1.414       .  A
C247        C248   1.374       .  A
C247        H259   1.081       .  S
C248        H260   1.081       .  S
C249        C250   1.391       .  A
C249        H261   1.082       .  S
C250        H262   1.082       .  S
C251        C252   1.371       .  A
C251        H263   1.083       .  S
C252        H264   1.073       .  S
C253        C254   1.370       .  A
C253        H265   1.083       .  S
C254        H266   1.073       .  S
C257        C839   1.494       .  S
C258        C813   1.496       .  S
N269        N270   1.321       .  A
N269        C273   1.356       .  A
N269       Cu277   2.116       .  S
N270        C271   1.335       .  A
N270       Cu276   2.038       .  S
C271        C272   1.374       .  A
C271        H274   1.082       .  S
C272        C273   1.396       .  A
C272        C841   1.475       .  S
C273        H275   1.082       .  S
Cu276       N279   2.036       .  S
Cu277       N287   2.118       .  S
Cu278       N280   2.085       .  S
Cu278       N286   2.084       .  S
N279        N280   1.317       .  A
N279        C283   1.343       .  A
N280        C281   1.345       .  A
C281        C282   1.389       .  A
C281        H284   1.082       .  S
C282        C283   1.380       .  A
C282        C338   1.476       .  S
C283        H285   1.082       .  S
N286        N287   1.324       .  A
N286        C290   1.342       .  A
N287        C288   1.352       .  A
C288        C289   1.395       .  A
C288        H291   1.082       .  S
C289        C290   1.387       .  A
C290        H292   1.083       .  S
N293        N294   1.321       .  A
N293        C297   1.357       .  A
N293       Cu301   2.118       .  S
N294        C295   1.335       .  A
N294       Cu300   2.037       .  S
C295        C296   1.374       .  A
C295        H298   1.082       .  S
C296        C297   1.397       .  A
C296        C811   1.476       .  S
C297        H299   1.082       .  S
Cu300       N303   2.037       .  S
Cu301       N311   2.120       .  S
Cu302       N304   2.085       .  S
Cu302       N310   2.083       .  S
N303        N304   1.316       .  A
N303        C307   1.343       .  A
N304        C305   1.345       .  A
C305        C306   1.390       .  A
C305        H308   1.082       .  S
C306        C307   1.381       .  A
C306        C337   1.478       .  S
C307        H309   1.082       .  S
N310        N311   1.325       .  A
N310        C314   1.342       .  A
N311        C312   1.353       .  A
C312        C313   1.395       .  A
C312        H315   1.082       .  S
C313        C314   1.386       .  A
C313        C366   1.487       .  S
C314        H316   1.083       .  S
N317        C322   1.344       .  A
N317        C321   1.343       .  A
N317        H349   1.040       .  S
N318        C325   1.357       .  A
N318        C326   1.349       .  A
N319        C324   1.360       .  A
N319        C323   1.360       .  A
N319        H350   1.037       .  S
N320        C327   1.356       .  A
N320        C328   1.348       .  A
C321        C329   1.387       .  A
C321        C337   1.400       .  A
C322        C338   1.400       .  A
C322        C330   1.386       .  A
C323        C331   1.388       .  A
C323        C340   1.431       .  A
C324        C339   1.431       .  A
C324        C332   1.387       .  A
C325        C337   1.407       .  A
C325        C333   1.380       .  A
C326        C340   1.417       .  A
C326        C334   1.385       .  A
C327        C335   1.380       .  A
C327        C338   1.406       .  A
C328        C336   1.385       .  A
C328        C339   1.414       .  A
C329        C330   1.374       .  A
C329        H341   1.081       .  S
C330        H342   1.081       .  S
C331        C332   1.391       .  A
C331        H343   1.082       .  S
C332        H344   1.082       .  S
C333        C334   1.371       .  A
C333        H345   1.083       .  S
C334        H346   1.072       .  S
C335        C336   1.370       .  A
C335        H347   1.082       .  S
C336        H348   1.073       .  S
C339        C772   1.495       .  S
C340        C783   1.497       .  S
C351        C352   1.395   1_556  A
C351        C356   1.418       .  A
C352        C353   1.395       .  A
C352        H371   1.086       .  S
C353        C354   1.417       .  A
C354        C355   1.427       .  A
C354        C361   1.406       .  A
C355        C356   1.427   1_554  A
C355        C360   1.425       .  A
C356        C357   1.406       .  A
C357        C358   1.399       .  A
C357        H367   1.083       .  S
C358        C359   1.406       .  A
C358        H368   1.083       .  S
C359        C360   1.427   1_556  A
C359        C366   1.418       .  A
C360        C363   1.427       .  A
C361        C362   1.399       .  A
C361        H369   1.083       .  S
C362        C363   1.406       .  A
C362        H370   1.083       .  S
C363        C364   1.418       .  A
C364        C365   1.395       .  A
C365        C366   1.395   1_554  A
C365        H372   1.086       .  S
N373        N374   1.321       .  A
N373        C377   1.357       .  A
N373       Cu381   2.118       .  S
N374        C375   1.335       .  A
N374       Cu380   2.036       .  S
C375        C376   1.373       .  A
C375        H378   1.082       .  S
C376        C377   1.397       .  A
C376        C756   1.475       .  S
C377        H379   1.082       .  S
Cu380       N383   2.035       .  S
Cu381       N391   2.121       .  S
Cu382       N384   2.085   1_565  S
Cu382       N390   2.084       .  S
N383        N384   1.316   1_565  A
N383        C387   1.342   1_565  A
N384        C385   1.345       .  A
C385        C386   1.390       .  A
C385        H388   1.082       .  S
C386        C387   1.381       .  A
C386        C441   1.477       .  S
C387        H389   1.082   1_545  S
N390        N391   1.325       .  A
N390        C394   1.342       .  A
N391        C392   1.353       .  A
C392        C393   1.395       .  A
C392        H395   1.082       .  S
C393        C394   1.386       .  A
C393        C537   1.487       .  S
C394        H396   1.083   1_565  S
N397        N398   1.321       .  A
N397        C401   1.356       .  A
N397       Cu405   2.115       .  S
N398        C399   1.335       .  A
N398       Cu404   2.038       .  S
C399        C400   1.374       .  A
C399        H402   1.082       .  S
C400        C401   1.396       .  A
C400        C798   1.474       .  S
C401        H403   1.082       .  S
Cu404       N407   2.036       .  S
Cu405       N415   2.117       .  S
Cu406       N408   2.085   1_565  S
Cu406       N414   2.084       .  S
N407        N408   1.317   1_565  A
N407        C411   1.343   1_565  A
N408        C409   1.344       .  A
C409        C410   1.389       .  A
C409        H412   1.082       .  S
C410        C411   1.380       .  A
C410        C442   1.476       .  S
C411        H413   1.082       .  S
N414        N415   1.324       .  A
N414        C418   1.342       .  A
N415        C416   1.352       .  A
C416        C417   1.395       .  A
C416        H419   1.082       .  S
C417        C418   1.387       .  A
C417        C725   1.486       .  S
C418        H420   1.083   1_565  S
N421        C426   1.344       .  A
N421        C425   1.343       .  A
N421        H453   1.040       .  S
N422        C429   1.357       .  A
N422        C430   1.349       .  A
N423        C428   1.359       .  A
N423        C427   1.360       .  A
N423        H454   1.037       .  S
N424        C431   1.356       .  A
N424        C432   1.348       .  A
C425        C433   1.387       .  A
C425        C441   1.401       .  A
C426        C442   1.400       .  A
C426        C434   1.386       .  A
C427        C435   1.388       .  A
C427        C444   1.431       .  A
C428        C443   1.430       .  A
C428        C436   1.387       .  A
C429        C441   1.407       .  A
C429        C437   1.380       .  A
C430        C444   1.417       .  A
C430        C438   1.386       .  A
C431        C439   1.380       .  A
C431        C442   1.406       .  A
C432        C440   1.385       .  A
C432        C443   1.414       .  A
C433        C434   1.374       .  A
C433        H445   1.081   1_545  S
C434        H446   1.081   1_545  S
C435        C436   1.391       .  A
C435        H447   1.082       .  S
C436        H448   1.082       .  S
C437        C438   1.371       .  A
C437        H449   1.083       .  S
C438        H450   1.073       .  S
C439        C440   1.370       .  A
C439        H451   1.082       .  S
C440        H452   1.073       .  S
C443        C856   1.494       .  S
C444        C828   1.496       .  S
N455        N456   1.321       .  A
N455        C459   1.356       .  A
N455       Cu463   2.115       .  S
N456        C457   1.335       .  A
N456       Cu462   2.038       .  S
C457        C458   1.374       .  A
C457        H460   1.082       .  S
C458        C459   1.396       .  A
C458        C854   1.474       .  S
C459        H461   1.082       .  S
Cu462       N465   2.037       .  S
Cu463       N473   2.118       .  S
Cu464       N466   2.085   1_545  S
Cu464       N472   2.083       .  S
N465        N466   1.317   1_545  A
N465        C469   1.343   1_545  A
N466        C467   1.344       .  A
C467        C468   1.389       .  A
C467        H470   1.082       .  S
C468        C469   1.380       .  A
C468        C523   1.476       .  S
C469        H471   1.082   1_565  S
N472        N473   1.324       .  A
N472        C476   1.342       .  A
N473        C474   1.352       .  A
C474        C475   1.395       .  A
C474        H477   1.082       .  S
C475        C476   1.387       .  A
C475        C723   1.486       .  S
C476        H478   1.083   1_545  S
N479        N480   1.321       .  A
N479        C483   1.357       .  A
N479       Cu487   2.118       .  S
N480        C481   1.335       .  A
N480       Cu486   2.037       .  S
C481        C482   1.374       .  A
C481        H484   1.082       .  S
C482        C483   1.397       .  A
C482        C826   1.476       .  S
C483        H485   1.082       .  S
Cu486       N489   2.036       .  S
Cu487       N497   2.121       .  S
Cu488       N490   2.085   1_545  S
Cu488       N496   2.083       .  S
N489        N490   1.316   1_545  A
N489        C493   1.343   1_545  A
N490        C491   1.345       .  A
C491        C492   1.390       .  A
C491        H494   1.082       .  S
C492        C493   1.381       .  A
C492        C524   1.477       .  S
C493        H495   1.082   1_565  S
N496        N497   1.325       .  A
N496        C500   1.342       .  A
N497        C498   1.353       .  A
C498        C499   1.395       .  A
C498        H501   1.082       .  S
C499        C500   1.385       .  A
C499        C539   1.487       .  S
C500        H502   1.083   1_545  S
N503        C508   1.343       .  A
N503        C507   1.344       .  A
N503        H535   1.040       .  S
N504        C511   1.356       .  A
N504        C512   1.348       .  A
N505        C510   1.360       .  A
N505        C509   1.360       .  A
N505        H536   1.037       .  S
N506        C513   1.357       .  A
N506        C514   1.349       .  A
C507        C515   1.386       .  A
C507        C523   1.400       .  A
C508        C524   1.400       .  A
C508        C516   1.387       .  A
C509        C517   1.387       .  A
C509        C526   1.430       .  A
C510        C525   1.431       .  A
C510        C518   1.388       .  A
C511        C523   1.406       .  A
C511        C519   1.380       .  A
C512        C526   1.414       .  A
C512        C520   1.385       .  A
C513        C521   1.380       .  A
C513        C524   1.407       .  A
C514        C522   1.386       .  A
C514        C525   1.417       .  A
C515        C516   1.374       .  A
C515        H527   1.081   1_565  S
C516        H528   1.081   1_565  S
C517        C518   1.391       .  A
C517        H529   1.082       .  S
C518        H530   1.082       .  S
C519        C520   1.370       .  A
C519        H531   1.082       .  S
C520        H532   1.073       .  S
C521        C522   1.371       .  A
C521        H533   1.083       .  S
C522        H534   1.073       .  S
C525        C758   1.496       .  S
C526        C800   1.494       .  S
C537        C538   1.395   1_565  A
C537        C542   1.418       .  A
C538        C539   1.395       .  A
C538        H557   1.086       .  S
C539        C540   1.417       .  A
C540        C541   1.427       .  A
C540        C547   1.406       .  A
C541        C542   1.427   1_545  A
C541        C546   1.425   1_655  A
C542        C543   1.406       .  A
C543        C544   1.399   1_655  A
C543        H553   1.083       .  S
C544        C545   1.406       .  A
C544        H554   1.083       .  S
C545        C546   1.427   1_565  A
C545        C552   1.417       .  A
C546        C549   1.427       .  A
C547        C548   1.399   1_655  A
C547        H555   1.083       .  S
C548        C549   1.406       .  A
C548        H556   1.083       .  S
C549        C550   1.418       .  A
C550        C551   1.395       .  A
C550        C661   1.487       .  S
C551        C552   1.395   1_545  A
C551        H558   1.086       .  S
C552        C579   1.486       .  S
N559        N560   1.321       .  A
N559        C563   1.356       .  A
N559       Cu567   2.116       .  S
N560        C561   1.335       .  A
N560       Cu566   2.036       .  S
C561        C562   1.374       .  A
C561        H564   1.082       .  S
C562        C563   1.396       .  A
C562        C769   1.474       .  S
C563        H565   1.082       .  S
Cu566       N569   2.035       .  S
Cu567       N577   2.119       .  S
Cu568       N570   2.085   1_565  S
Cu568       N576   2.083       .  S
N569        N570   1.316   1_565  A
N569        C573   1.342   1_565  A
N570        C571   1.344       .  A
C571        C572   1.390       .  A
C571        H574   1.082       .  S
C572        C573   1.380       .  A
C572        C627   1.476       .  S
C573        H575   1.082   1_545  S
N576        N577   1.324       .  A
N576        C580   1.342       .  A
N577        C578   1.352       .  A
C578        C579   1.395       .  A
C578        H581   1.082       .  S
C579        C580   1.386       .  A
C580        H582   1.083   1_565  S
N583        N584   1.321       .  A
N583        C587   1.357       .  A
N583       Cu591   2.117       .  S
N584        C585   1.335       .  A
N584       Cu590   2.038       .  S
C585        C586   1.374       .  A
C585        H588   1.082       .  S
C586        C587   1.397       .  A
C586        C786   1.476       .  S
C587        H589   1.082       .  S
Cu590       N593   2.037       .  S
Cu591       N601   2.120       .  S
Cu592       N594   2.086   1_565  S
Cu592       N600   2.084       .  S
N593        N594   1.317   1_565  A
N593        C597   1.343   1_565  A
N594        C595   1.345       .  A
C595        C596   1.390       .  A
C595        H598   1.082       .  S
C596        C597   1.380       .  A
C596        C628   1.477       .  S
C597        H599   1.082   1_545  S
N600        N601   1.325       .  A
N600        C604   1.342       .  A
N601        C602   1.352       .  A
C602        C603   1.395       .  A
C602        H605   1.082       .  S
C603        C604   1.386       .  A
C603        C736   1.486       .  S
C604        H606   1.083   1_565  S
N607        C612   1.344       .  A
N607        C611   1.344       .  A
N607        H639   1.040       .  S
N608        C615   1.356       .  A
N608        C616   1.348       .  A
N609        C614   1.360       .  A
N609        C613   1.360       .  A
N609        H640   1.037       .  S
N610        C617   1.357       .  A
N610        C618   1.349       .  A
C611        C619   1.387       .  A
C611        C627   1.400       .  A
C612        C628   1.400       .  A
C612        C620   1.386       .  A
C613        C621   1.387       .  A
C613        C630   1.430       .  A
C614        C629   1.432       .  A
C614        C622   1.388       .  A
C615        C627   1.406       .  A
C615        C623   1.380       .  A
C616        C630   1.414       .  A
C616        C624   1.384       .  A
C617        C625   1.380       .  A
C617        C628   1.407       .  A
C618        C626   1.386       .  A
C618        C629   1.417       .  A
C619        C620   1.374       .  A
C619        H631   1.081   1_545  S
C620        H632   1.081   1_545  S
C621        C622   1.391       .  A
C621        H633   1.082       .  S
C622        H634   1.082       .  S
C623        C624   1.370       .  A
C623        H635   1.082       .  S
C624        H636   1.073       .  S
C625        C626   1.371       .  A
C625        H637   1.083       .  S
C626        H638   1.073       .  S
C629        C814   1.496       .  S
C630        C840   1.495       .  S
N641        N642   1.321       .  A
N641        C645   1.356       .  A
N641       Cu649   2.115       .  S
N642        C643   1.335       .  A
N642       Cu648   2.036       .  S
C643        C644   1.374       .  A
C643        H646   1.082       .  S
C644        C645   1.396       .  A
C644        C842   1.474       .  S
C645        H647   1.082       .  S
Cu648       N651   2.034       .  S
Cu649       N659   2.118       .  S
Cu650       N652   2.085   1_545  S
Cu650       N658   2.083       .  S
N651        N652   1.317   1_545  A
N651        C655   1.342   1_545  A
N652        C653   1.344       .  A
C653        C654   1.390       .  A
C653        H656   1.082       .  S
C654        C655   1.380       .  A
C654        C710   1.476       .  S
C655        H657   1.082   1_565  S
N658        N659   1.324       .  A
N658        C662   1.342       .  A
N659        C660   1.352       .  A
C660        C661   1.395       .  A
C660        H663   1.082       .  S
C661        C662   1.386       .  A
C662        H664   1.083   1_545  S
N665        N666   1.321       .  A
N665        C669   1.357       .  A
N665       Cu673   2.117       .  S
N666        C667   1.335       .  A
N666       Cu672   2.038       .  S
C667        C668   1.374       .  A
C667        H670   1.082       .  S
C668        C669   1.397       .  A
C668        C812   1.476       .  S
C669        H671   1.082       .  S
Cu672       N675   2.037       .  S
Cu673       N683   2.120       .  S
Cu674       N676   2.086   1_545  S
Cu674       N682   2.084       .  S
N675        N676   1.317   1_545  A
N675        C679   1.343   1_545  A
N676        C677   1.345       .  A
C677        C678   1.390       .  A
C677        H680   1.082       .  S
C678        C679   1.380       .  A
C678        C709   1.477       .  S
C679        H681   1.082   1_565  S
N682        N683   1.325       .  A
N682        C686   1.342       .  A
N683        C684   1.352       .  A
C684        C685   1.395       .  A
C684        H687   1.082       .  S
C685        C686   1.386       .  A
C685        C738   1.487       .  S
C686        H688   1.083   1_545  S
N689        C694   1.344       .  A
N689        C693   1.343       .  A
N689        H721   1.042       .  S
N690        C697   1.356       .  A
N690        C698   1.349       .  A
N691        C696   1.359       .  A
N691        C695   1.359       .  A
N691        H722   1.040       .  S
N692        C699   1.356       .  A
N692        C700   1.348       .  A
C693        C701   1.386       .  A
C693        C709   1.400       .  A
C694        C710   1.400       .  A
C694        C702   1.387       .  A
C695        C703   1.388       .  A
C695        C712   1.432       .  A
C696        C711   1.430       .  A
C696        C704   1.387       .  A
C697        C709   1.407       .  A
C697        C705   1.380       .  A
C698        C712   1.417       .  A
C698        C706   1.386       .  A
C699        C707   1.380       .  A
C699        C710   1.406       .  A
C700        C708   1.385       .  A
C700        C711   1.414       .  A
C701        C702   1.374       .  A
C701        H713   1.081   1_565  S
C702        H714   1.081   1_565  S
C703        C704   1.391       .  A
C703        H715   1.082       .  S
C704        H716   1.082       .  S
C705        C706   1.371       .  A
C705        H717   1.083       .  S
C706        H718   1.073       .  S
C707        C708   1.369       .  A
C707        H719   1.082       .  S
C708        H720   1.073       .  S
C711        C771   1.495       .  S
C712        C784   1.495       .  S
C723        C724   1.394       .  A
C723        C728   1.418       .  A
C724        C725   1.394   1_544  A
C724        H743   1.086       .  S
C725        C726   1.418       .  A
C726        C727   1.427   1_566  A
C726        C733   1.406       .  A
C727        C728   1.427       .  A
C727        C732   1.425   1_655  A
C728        C729   1.406       .  A
C729        C730   1.400   1_655  A
C729        H739   1.083       .  S
C730        C731   1.406       .  A
C730        H740   1.083       .  S
C731        C732   1.427       .  A
C731        C738   1.418       .  A
C732        C735   1.427   1_544  A
C733        C734   1.400   1_655  A
C733        H741   1.083       .  S
C734        C735   1.406       .  A
C734        H742   1.083       .  S
C735        C736   1.418       .  A
C736        C737   1.395   1_566  A
C737        C738   1.395       .  A
C737        H744   1.086       .  S
O745       Cu753   2.004       .  S
O745        C755   1.279       .  A
O746       Cu753   2.024       .  S
O746        C756   1.276       .  A
O747       Cu753   2.036       .  S
O747        C757   1.282       .  A
O748       Cu753   2.041       .  S
O748        C758   1.279       .  A
O749       Cu754   2.035       .  S
O749        C758   1.282       .  A
O750       Cu754   2.038       .  S
O750        C757   1.279       .  A
O751       Cu754   2.007       .  S
O751        C756   1.280       .  A
O752       Cu754   2.026       .  S
O752        C755   1.277       .  A
Cu753      Cu754   2.371       .  S
O759       Cu767   2.006       .  S
O759        C769   1.280       .  A
O760       Cu767   2.024       .  S
O760        C770   1.277       .  A
O761       Cu767   2.032       .  S
O761        C771   1.282       .  A
O762       Cu767   2.037       .  S
O762        C772   1.279       .  A
O763       Cu768   2.035       .  S
O763        C772   1.282       .  A
O764       Cu768   2.041       .  S
O764        C771   1.279       .  A
O765       Cu768   2.005       .  S
O765        C770   1.279       .  A
O766       Cu768   2.023       .  S
O766        C769   1.277       .  A
Cu767      Cu768   2.371       .  S
O773       Cu781   2.041       .  S
O773        C783   1.280       .  A
O774       Cu781   2.036   1_554  S
O774        C784   1.282       .  A
O775       Cu781   2.024   1_554  S
O775        C785   1.276       .  A
O776       Cu781   2.005       .  S
O776        C786   1.279       .  A
O777       Cu782   2.027   1_556  S
O777        C786   1.277       .  A
O778       Cu782   2.006       .  S
O778        C785   1.280       .  A
O779       Cu782   2.037       .  S
O779        C784   1.279       .  A
O780       Cu782   2.034   1_556  S
O780        C783   1.282       .  A
Cu781      Cu782   2.371   1_556  S
O787       Cu795   2.022   1_554  S
O787        C797   1.277       .  A
O788       Cu795   2.004       .  S
O788        C798   1.279       .  A
O789       Cu795   2.040       .  S
O789        C799   1.279       .  A
O790       Cu795   2.034   1_554  S
O790        C800   1.282       .  A
O791       Cu796   2.038       .  S
O791        C800   1.279       .  A
O792       Cu796   2.032   1_556  S
O792        C799   1.282       .  A
O793       Cu796   2.024   1_556  S
O793        C798   1.277       .  A
O794       Cu796   2.007       .  S
O794        C797   1.280       .  A
Cu795      Cu796   2.372   1_556  S
O801       Cu809   2.006       .  S
O801        C811   1.280       .  A
O802       Cu809   2.026   1_554  S
O802        C812   1.277       .  A
O803       Cu809   2.034   1_554  S
O803        C813   1.282       .  A
O804       Cu809   2.038       .  S
O804        C814   1.279       .  A
O805       Cu810   2.036   1_556  S
O805        C814   1.282       .  A
O806       Cu810   2.041       .  S
O806        C813   1.279       .  A
O807       Cu810   2.005       .  S
O807        C812   1.280       .  A
O808       Cu810   2.025   1_556  S
O808        C811   1.277       .  A
Cu809      Cu810   2.371   1_556  S
O815       Cu823   2.004       .  S
O815        C825   1.279       .  A
O816       Cu823   2.025       .  S
O816        C826   1.277       .  A
O817       Cu823   2.036       .  S
O817        C827   1.282       .  A
O818       Cu823   2.041       .  S
O818        C828   1.279       .  A
O819       Cu824   2.034       .  S
O819        C828   1.282       .  A
O820       Cu824   2.038       .  S
O820        C827   1.279       .  A
O821       Cu824   2.007       .  S
O821        C826   1.280       .  A
O822       Cu824   2.026       .  S
O822        C825   1.277       .  A
Cu823      Cu824   2.371       .  S
O829       Cu837   2.034       .  S
O829        C839   1.282       .  A
O830       Cu837   2.041       .  S
O830        C840   1.279       .  A
O831       Cu837   2.004       .  S
O831        C841   1.279       .  A
O832       Cu837   2.022       .  S
O832        C842   1.276       .  A
O833       Cu838   2.006       .  S
O833        C842   1.280       .  A
O834       Cu838   2.025       .  S
O834        C841   1.277       .  A
O835       Cu838   2.033       .  S
O835        C840   1.282       .  A
O836       Cu838   2.037       .  S
O836        C839   1.279       .  A
Cu837      Cu838   2.371       .  S
O843       Cu851   2.022   1_556  S
O843        C853   1.277       .  A
O844       Cu851   2.005       .  S
O844        C854   1.279       .  A
O845       Cu851   2.040       .  S
O845        C855   1.279       .  A
O846       Cu851   2.033   1_556  S
O846        C856   1.282       .  A
O847       Cu852   2.037       .  S
O847        C856   1.279       .  A
O848       Cu852   2.033   1_554  S
O848        C855   1.282       .  A
O849       Cu852   2.024   1_554  S
O849        C854   1.277       .  A
O850       Cu852   2.006       .  S
O850        C853   1.280       .  A
Cu851      Cu852   2.372   1_554  S
