geometry optimzed in LAMMPS
_audit_creation_date              2020-11-30 
_audit_creation_method            'lammps2cif' 
_symmetry_space_group_name_H-M    'P1' 
_symmetry_Int_Tables_number       1 
_symmetry_cell_setting            triclinic 
loop_ 
_symmetry_equiv_pos_as_xyz 
  x,y,z 
_cell_length_a                    19.913923683986674 
_cell_length_b                    20.454515015098636 
_cell_length_c                    39.12737672119723 
_cell_angle_alpha                 91.3780339214175 
_cell_angle_beta                  90.87817640592402 
_cell_angle_gamma                 90.84845718312846 
loop_ 
_atom_site_label 
_atom_site_type_symbol 
_atom_site_fract_x 
_atom_site_fract_y 
_atom_site_fract_z 
_atom_site_charge 
C1          C  0.29705105  0.32782654  0.08163651    -0.02920
C2          C  0.32469086  0.12520998  0.19179349    -0.02920
C3          C  0.13006128  0.12679006  0.08717785    -0.02920
C4          C  0.12925865  0.31666038  0.19505823    -0.02920
C5          C  0.32892269  0.12606500  0.34081911    -0.02920
C6          C  0.12064702  0.11990674  0.43783510    -0.02920
C7          C  0.13609670  0.32011723  0.34730286    -0.02920
C8          C  0.33614549  0.32240937  0.43742065    -0.02920
O9          O  0.41007347  0.33523969  0.49040878    -0.80570
O10         O  0.55317764  0.57475909  0.46961422    -0.80590
O11         O  0.32050730  0.54074297  0.48627313    -0.80600
O12         O  0.58518536  0.43091820  0.47122645    -0.80540
O13         O  0.41650458  0.57524795  0.46569017    -0.80660
O14         O  0.55376504  0.34121103  0.49479389    -0.80580
O15         O  0.64708893  0.54639139  0.49412245    -0.80570
O16         O  0.37857222  0.42527443  0.46697881    -0.80610
C17         C  0.37725941  0.36301443  0.46656672     1.09120
C18         C  0.61678443  0.58111955  0.47182136     1.09010
C19         C  0.35181227  0.57493455  0.46412409     1.09140
C20         C  0.58737904  0.36881189  0.47172727     1.09020
O21         O  0.54504527  0.37928332  0.06704748    -0.80570
O22         O  0.41344016  0.61723864  0.03923182    -0.80650
O23         O  0.32378798  0.40609806  0.03491828    -0.80580
O24         O  0.59835283  0.52547695  0.06267830    -0.79880
O25         O  0.55381744  0.61437930  0.04521686    -0.80610
O26         O  0.40901284  0.36936735  0.06435589    -0.80580
O27         O  0.63612087  0.40952547  0.04041156    -0.80540
O28         O  0.37013141  0.52686116  0.05629343    -0.80610
Co29       Co  0.47950184  0.36843203  0.02773520     1.51530
Co30       Co  0.48406959  0.58096925  0.00712389     1.51690
Co31       Co  0.38010924  0.47769831  0.01148984     1.51570
Co32       Co  0.58460367  0.48089169  0.01614596     1.51470
O33         O  0.48143553  0.47390331  0.01979826    -1.42500
C34         C  0.60855453  0.37853400  0.06480239     1.09050
C35         C  0.37368457  0.58856968  0.05883606     1.09140
C36         C  0.34602683  0.37039697  0.05927052     1.09080
C37         C  0.59298192  0.58643330  0.06670074     1.09050
C38         C  0.32625687  0.62753625  0.08314560    -0.02920
C39         C  0.11923124  0.81088355  0.08700327    -0.02920
C40         C  0.13582682  0.59053985  0.18300573    -0.02920
C41         C  0.30810689  0.81887443  0.19087497    -0.02920
O42         O  0.41333821  0.11170751  0.29170366    -0.80570
O43         O  0.55663437  0.83592939  0.29683069    -0.80590
O44         O  0.33261767  0.89770043  0.29794375    -0.80600
O45         O  0.64401503  0.04123803  0.29337755    -0.80540
O46         O  0.42077229  0.83823985  0.30826890    -0.80660
O47         O  0.54650713  0.08127485  0.30779041    -0.80580
O48         O  0.58437730  0.93026207  0.31922022    -0.80570
O49         O  0.36421345  0.02454642  0.31226460    -0.80610
C50         C  0.37217627  0.08594739  0.31348328     1.09120
C51         C  0.58847387  0.86706318  0.32029597     1.09010
C52         C  0.36026900  0.85280729  0.31446794     1.09140
C53         C  0.61155572  0.08299118  0.31157330     1.09020
O54         O  0.53984929  0.14250857  0.24452182    -0.80570
O55         O  0.39739773  0.83330420  0.23420448    -0.80650
O56         O  0.34126358  0.05295869  0.24026986    -0.80580
O57         O  0.62229037  0.91466517  0.24643011    -0.80560
O58         O  0.53621507  0.85696088  0.22462369    -0.80610
O59         O  0.43486805  0.07512223  0.21637494    -0.80580
O60         O  0.58115946  0.04725916  0.22958292    -0.80540
O61         O  0.33694288  0.92037796  0.22485246    -0.80610
Co62       Co  0.48888989  0.06531123  0.26208295     1.51530
Co63       Co  0.47659159  0.85587416  0.26601182     1.51690
Co64       Co  0.35834283  0.97272736  0.26855092     1.51570
Co65       Co  0.56988479  0.98665902  0.27450499     1.51470
O66         O  0.46616940  0.96200473  0.26751576    -1.42500
C67         C  0.58112512  0.11136725  0.22532743     1.09050
C68         C  0.34950251  0.86065305  0.21830297     1.09140
C69         C  0.37140157  0.08215876  0.21661367     1.09080
C70         C  0.59943792  0.86893281  0.22549029     1.09050
C71         C  0.63941489  0.32946082  0.44896128    -0.02920
C72         C  0.83035043  0.33913579  0.35978043    -0.02920
C73         C  0.65085236  0.13115482  0.33764192    -0.02920
C74         C  0.82769111  0.13012888  0.44253320    -0.02920
C75         C  0.31334723  0.61924857  0.43729701    -0.02920
C76         C  0.31639565  0.81605257  0.34106989    -0.02920
C77         C  0.10451142  0.65263105  0.34549387    -0.02920
C78         C  0.15103434  0.83707148  0.44919267    -0.02920
C79         C  0.64684313  0.82745918  0.20066756    -0.02920
C80         C  0.84469339  0.63260068  0.19165796    -0.02920
C81         C  0.64000903  0.62665687  0.09398974    -0.02920
C82         C  0.82369263  0.84166203  0.09378631    -0.02920
C83         C  0.65384120  0.62804637  0.44671253    -0.02920
C84         C  0.81420740  0.61521455  0.33375730    -0.02920
C85         C  0.63564066  0.82544807  0.34690605    -0.02920
C86         C  0.83222882  0.82877135  0.44165190    -0.02920
O87         O  0.11366077  0.04092465  0.04077808    -0.80570
O88         O  0.84266683  0.89019220  0.03814895    -0.80590
O89         O  0.89454673  0.10606938  0.05747288    -0.80600
O90         O  0.03143570  0.81603758  0.04071459    -0.80540
O91         O  0.83075735  0.01783380  0.05879142    -0.80660
O92         O  0.07539305  0.91063481  0.05741851    -0.80580
O93         O  0.93197825  0.88854025  0.06883362    -0.80570
O94         O  0.02576811  0.08025881  0.06630737    -0.80610
C95         C  0.08824571  0.07806018  0.06430382     1.09120
C96         C  0.86909769  0.87705740  0.06656209     1.09010
C97         C  0.84624828  0.07444507  0.07110519     1.09140
C98         C  0.07192985  0.84715716  0.06099813     1.09020
O99         O  0.14533755  0.92326125  0.49619557    -0.80570
O100        O  0.83137750  0.04997774  0.48627306    -0.80650
O101        O  0.05553056  0.11094367  0.49310102    -0.80580
O102        O  0.91697855  0.84325379  0.49162510    -0.80560
O103        O  0.87494919  0.92942786  0.46833858    -0.80610
O104        O  0.07230016  0.01843947  0.46714287    -0.80580
O105        O  0.04871735  0.87951230  0.47986231    -0.80540
O106        O  0.92214229  0.11042160  0.48111942    -0.80610
Co107      Co  0.06414563  0.96680127  0.01208851     1.51530
Co108      Co  0.85706859  0.97369818  0.01334347     1.51690
Co109      Co  0.97327553  0.09199875  0.02420340     1.51570
Co110      Co  0.98780064  0.89300408  0.02405148     1.51470
O111        O  0.96240604  0.99027114  0.01784513    -1.42500
C112        C  0.11400063  0.88173369  0.47666899     1.09050
C113        C  0.86363943  0.09341154  0.47102635     1.09140
C114        C  0.08058004  0.08048765  0.46740104     1.09080
C115        C  0.88274922  0.86825469  0.46668763     1.09050
C116        C  0.63020095  0.14675662  0.19746654    -0.02920
C117        C  0.79814025  0.10994527  0.09806728    -0.02920
C118        C  0.64968811  0.33944188  0.09116285    -0.02920
C119        C  0.83488482  0.33497760  0.19019443    -0.02920
O120        O  0.03352197  0.33002231  0.23586591    -0.80570
O121        O  0.01879367  0.62154420  0.29713268    -0.80590
O122        O  0.03548931  0.51716838  0.18411945    -0.80600
O123        O  0.07216252  0.41905306  0.33507243    -0.80540
O124        O  0.06569906  0.56218061  0.23381345    -0.80660
O125        O  0.03796921  0.32977388  0.30737736    -0.80580
O126        O  0.06594565  0.54447231  0.32465351    -0.80570
O127        O  0.08258103  0.42091275  0.22233940    -0.80610
C128        C  0.08041428  0.35852832  0.21972499     1.09120
C129        C  0.05812973  0.60482452  0.32173483     1.09010
C130        C  0.07702986  0.55386962  0.20113315     1.09140
C131        C  0.07933579  0.35875196  0.32810961     1.09020
O132        O  0.88841755  0.35505033  0.30574887    -0.80570
O133        O  0.94270023  0.63089349  0.23257300    -0.80650
O134        O  0.94334902  0.40221677  0.19676468    -0.80580
O135        O  0.91635234  0.54435189  0.33393829    -0.80560
O136        O  0.88111279  0.57065990  0.28343279    -0.80610
O137        O  0.89137326  0.36969835  0.24153392    -0.80580
O138        O  0.92534069  0.41493653  0.34896068    -0.80540
O139        O  0.90895820  0.53416373  0.21378709    -0.80610
Co140      Co  0.96542139  0.35697619  0.27308285     1.51530
Co141      Co  0.97250819  0.55821998  0.26021443     1.51690
Co142      Co  0.99673187  0.47641317  0.22374123     1.51570
Co143      Co  0.99364236  0.47917241  0.33003521     1.51470
O144        O  0.98180897  0.46015130  0.27653106    -1.42500
C145        C  0.88276921  0.37387072  0.33642438     1.09050
C146        C  0.90231740  0.59785641  0.21308166     1.09140
C147        C  0.89521345  0.36904306  0.20973231     1.09080
C148        C  0.87364322  0.57441706  0.31566626     1.09050
C149        C  0.73531406  0.41322917  0.17399972    -0.26750
C150        C  0.79927750  0.38817350  0.16729299    -0.14820
C151        C  0.81697588  0.39579360  0.13281765     0.35810
C152        C  0.76480632  0.40444259  0.10792644    -0.26200
C153        C  0.69628454  0.38996448  0.11479741    -0.15440
C154        C  0.68255010  0.40979362  0.14905074     0.36890
N155        N  0.62063856  0.43882927  0.15767487    -0.89690
H156        H  0.72857473  0.44108982  0.19697516     0.18010
H157        H  0.77756257  0.42440879  0.08400626     0.18000
N158        N  0.88623008  0.39226587  0.12315356    -0.88710
H159        H  0.60103571  0.41743831  0.17943923     0.35380
H160        H  0.58730183  0.43765243  0.13675658     0.40470
H161        H  0.91386700  0.42502069  0.13875405     0.40090
H162        H  0.89212876  0.41100572  0.09883834     0.34980
C163        C  0.80062742  0.23225372  0.07852221    -0.26750
C164        C  0.76624978  0.17010236  0.07799854    -0.14820
C165        C  0.70825941  0.17063538  0.05698593     0.35810
C166        C  0.67449651  0.23155357  0.05312976    -0.26200
C167        C  0.69724349  0.28998912  0.06922718    -0.15440
C168        C  0.76785114  0.29039114  0.07011735     0.36890
N169        N  0.80337086  0.33457523  0.04873436    -0.89690
H170        H  0.85405217  0.23480954  0.08341520     0.18010
H171        H  0.63064377  0.23503075  0.03834450     0.18000
N172        N  0.69529717  0.11836484  0.03273417    -0.88710
H173        H  0.84855152  0.35080180  0.05974701     0.35380
H174        H  0.77327492  0.37180934  0.03941127     0.40470
H175        H  0.72653777  0.07876852  0.03680393     0.40090
H176        H  0.64558562  0.10289148  0.03383777     0.34980
C177        C  0.90132005  0.22950098  0.16103631    -0.26750
C178        C  0.84614827  0.27319132  0.16546629    -0.14820
C179        C  0.78517545  0.24576837  0.15453720     0.35810
C180        C  0.77721042  0.18211045  0.14690530    -0.26200
C181        C  0.82724074  0.15094727  0.12957985    -0.15440
C182        C  0.89154342  0.16723355  0.14159379     0.36890
N183        N  0.93596314  0.11345869  0.14265901    -0.89690
H184        H  0.94748058  0.24365535  0.17302693     0.18010
H185        H  0.72586585  0.16843402  0.14164093     0.18000
N186        N  0.72794819  0.28279922  0.15074103    -0.88710
H187        H  0.95432069  0.10575924  0.16721900     0.35380
H188        H  0.97063370  0.11426989  0.12327742     0.40470
H189        H  0.69039105  0.26487801  0.16492154     0.40090
H190        H  0.71275771  0.26935113  0.12687282     0.34980
C191        C  0.59059386  0.18060424  0.13149352    -0.26750
C192        C  0.59240804  0.19341463  0.16792636    -0.14820
C193        C  0.56234277  0.25652954  0.17311002     0.35810
C194        C  0.56993671  0.30680778  0.14744456    -0.26200
C195        C  0.59868503  0.29384960  0.11452875    -0.15440
C196        C  0.58439686  0.22817144  0.10617479     0.36890
N197        N  0.54587468  0.21202784  0.07555255    -0.89690
H198        H  0.56980724  0.13644777  0.12122708     0.18010
H199        H  0.53965798  0.34939666  0.15031252     0.18000
N200        N  0.51936656  0.26764377  0.20189186    -0.88710
H201        H  0.49613568  0.20311882  0.08159817     0.35380
H202        H  0.56217132  0.16726110  0.06551890     0.40470
H203        H  0.47990563  0.23355000  0.20080464     0.40090
H204        H  0.49815274  0.31399696  0.20085349     0.34980
C205        C  0.80456306  0.23736191  0.22883126    -0.26750
C206        C  0.78821176  0.30090462  0.21863894    -0.14820
C207        C  0.72083317  0.31483032  0.22571342     0.35810
C208        C  0.67191182  0.26367361  0.22303048    -0.26200
C209        C  0.68659453  0.19620859  0.21683112    -0.15440
C210        C  0.75606005  0.18514077  0.22679057     0.36890
N211        N  0.77954230  0.12411376  0.23780733    -0.89690
H212        H  0.85711969  0.22528970  0.23184277     0.18010
H213        H  0.62214427  0.27882978  0.22642830     0.18000
N214        N  0.70314538  0.37728440  0.24012873    -0.88710
H215        H  0.82209331  0.11317298  0.22346512     0.35380
H216        H  0.79650175  0.12932704  0.26298947     0.40470
H217        H  0.74014292  0.39345370  0.25768284     0.40090
H218        H  0.65669333  0.37560718  0.25211132     0.34980
C219        C  0.63753000  0.06119888  0.14625459    -0.26750
C220        C  0.66531587  0.08736494  0.17639745    -0.14820
C221        C  0.72745942  0.05687964  0.18211182     0.35810
C222        C  0.76915150  0.04323560  0.15306150    -0.26200
C223        C  0.74871718  0.06069179  0.11881907    -0.15440
C224        C  0.67696076  0.05753385  0.11595730     0.36890
N225        N  0.64317210  0.04819805  0.08379848    -0.89690
H226        H  0.58369513  0.05267900  0.14552248     0.18010
H227        H  0.82107520  0.03254178  0.15831316     0.18000
N228        N  0.73270982  0.01444822  0.21070185    -0.88710
H229        H  0.66068638  0.00701027  0.07087265     0.35380
H230        H  0.59144731  0.04158404  0.08675212     0.40470
H231        H  0.70449198  0.03112727  0.23129792     0.40090
H232        H  0.78288176  0.01049533  0.21846199     0.34980
C233        C  0.75637609  0.88804375  0.35794068    -0.26750
C234        C  0.68840224  0.87604826  0.36680936    -0.14820
C235        C  0.67664232  0.90552470  0.39941798     0.35810
C236        C  0.72956361  0.91017202  0.42475231    -0.26200
C237        C  0.79309357  0.88283345  0.41843930    -0.15440
C238        C  0.80897656  0.88994730  0.38307444     0.36890
N239        N  0.87734315  0.89438848  0.37213368    -0.89690
H240        H  0.76850245  0.90422013  0.33282528     0.18010
H241        H  0.72014524  0.93366382  0.44875742     0.18000
N242        N  0.61539908  0.93854480  0.40556558    -0.88710
H243        H  0.88709430  0.85405328  0.35635521     0.35380
H244        H  0.91030967  0.89353681  0.39316020     0.40470
H245        H  0.57727334  0.92524627  0.38798668     0.40090
H246        H  0.60086217  0.93526789  0.43104822     0.34980
C247        C  0.69964751  0.65273649  0.30464920    -0.26750
C248        C  0.76979707  0.66008843  0.30811541    -0.14820
C249        C  0.78856866  0.72735676  0.30363862     0.35810
C250        C  0.74243642  0.77900134  0.31043492    -0.26200
C251        C  0.67716755  0.76910630  0.32397002    -0.15440
C252        C  0.65375127  0.70436379  0.31265822     0.36890
N253        N  0.58441961  0.69025004  0.30616213    -0.89690
H254        H  0.68008840  0.60689422  0.29439262     0.18010
H255        H  0.75796126  0.82597525  0.30243787     0.18000
N256        N  0.85666395  0.74526149  0.29707156    -0.88710
H257        H  0.57585313  0.64292532  0.29616967     0.35380
H258        H  0.56464239  0.72299163  0.28912278     0.40470
H259        H  0.88524498  0.70352212  0.29320574     0.40090
H260        H  0.87613488  0.77123358  0.31825299     0.34980
C261        C  0.90084801  0.74930672  0.39754401    -0.26750
C262        C  0.84265819  0.77605320  0.41168643    -0.14820
C263        C  0.78265345  0.74884040  0.39720466     0.35810
C264        C  0.78024669  0.69857547  0.37489504    -0.26200
C265        C  0.83465568  0.67013946  0.36103414    -0.15440
C266        C  0.89622451  0.69520973  0.37336335     0.36890
N267        N  0.95358800  0.66645484  0.36114914    -0.89690
H268        H  0.94774556  0.77161464  0.40368413     0.18010
H269        H  0.73061054  0.68050895  0.36778472     0.18000
N270        N  0.71795844  0.76575098  0.40599215    -0.88710
H271        H  0.94878150  0.66579451  0.33493431     0.35380
H272        H  0.95878870  0.62031816  0.37119392     0.40470
H273        H  0.71158155  0.79859513  0.42499571     0.40090
H274        H  0.70292206  0.72426743  0.41706393     0.34980
C275        C  0.58756405  0.79892736  0.41343817    -0.26750
C276        C  0.59466288  0.78431579  0.37732046    -0.14820
C277        C  0.56392445  0.72249956  0.37245445     0.35810
C278        C  0.57054460  0.67254705  0.39740056    -0.26200
C279        C  0.60124021  0.68188998  0.42967627    -0.15440
C280        C  0.59022894  0.74949663  0.43952565     0.36890
N281        N  0.55749337  0.76485993  0.47130565    -0.89690
H282        H  0.56168141  0.84183144  0.42103670     0.18010
H283        H  0.52984764  0.63737689  0.39740865     0.18000
N284        N  0.50156422  0.72106058  0.35476124    -0.88710
H285        H  0.58061615  0.80282850  0.48541928     0.35380
H286        H  0.54850805  0.72345351  0.48586216     0.40470
H287        H  0.50018692  0.75463197  0.33516430     0.40090
H288        H  0.49681678  0.67366038  0.34507517     0.34980
C289        C  0.70335921  0.55585896  0.35440910    -0.26750
C290        C  0.77309049  0.56728940  0.35802726    -0.14820
C291        C  0.79634162  0.55805247  0.39235019     0.35810
C292        C  0.74954856  0.55700215  0.41915390    -0.26200
C293        C  0.68619256  0.58435551  0.41578220    -0.15440
C294        C  0.65924688  0.56752314  0.38218379     0.36890
N295        N  0.59143191  0.54555750  0.37667698    -0.89690
H296        H  0.68314109  0.53543672  0.33072383     0.18010
H297        H  0.76087036  0.53126153  0.44161790     0.18000
N298        N  0.86622874  0.56710274  0.40105890    -0.88710
H299        H  0.56761383  0.57167475  0.35743789     0.35380
H300        H  0.56505284  0.54251846  0.39948911     0.40470
H301        H  0.89390645  0.53028245  0.38977302     0.40090
H302        H  0.87560888  0.56701211  0.42729845     0.34980
C303        C  0.69559130  0.72649568  0.48628224    -0.26750
C304        C  0.71169203  0.66742181  0.46972601    -0.14820
C305        C  0.78357584  0.66004461  0.47018673     0.35810
C306        C  0.82563794  0.71642056  0.47088063    -0.26200
C307        C  0.79829478  0.77947771  0.46761379    -0.15440
C308        C  0.73507556  0.78416056  0.48245270     0.36890
N309        N  0.70742624  0.84587323  0.49000281    -0.89690
H310        H  0.65055859  0.72774830  0.49993522     0.18010
H311        H  0.87869534  0.71004450  0.46815146     0.18000
N312        N  0.81557331  0.59993665  0.47820989    -0.88710
H313        H  0.66890379  0.85586870  0.47278685     0.35380
H314        H  0.74507677  0.88187659  0.49182430     0.40470
H315        H  0.78213720  0.56882121  0.49017580     0.40090
H316        H  0.85667964  0.60828213  0.49469436     0.34980
C317        C  0.79710995  0.73167532  0.05960593    -0.26750
C318        C  0.77316376  0.79373277  0.07038999    -0.14820
C319        C  0.70250299  0.79827922  0.06467984     0.35810
C320        C  0.66163372  0.73980647  0.06227820    -0.26200
C321        C  0.68683684  0.67693040  0.07081926    -0.15440
C322        C  0.75691465  0.67368969  0.06305827     0.36890
N323        N  0.78814214  0.61278039  0.05736324    -0.89690
H324        H  0.85063927  0.72656333  0.05612661     0.18010
H325        H  0.60862738  0.74412816  0.05688736     0.18000
N326        N  0.67530096  0.85642396  0.05072043    -0.88710
H327        H  0.83753515  0.61772828  0.04919217     0.35380
H328        H  0.75856084  0.58595565  0.03986490     0.40470
H329        H  0.71141985  0.89365016  0.04865369     0.40090
H330        H  0.63111143  0.87257113  0.06130076     0.34980
C331        C  0.72732411  0.56691432  0.17976403    -0.26750
C332        C  0.79535182  0.57660746  0.17163528    -0.14820
C333        C  0.80444434  0.55222804  0.13702513     0.35810
C334        C  0.74815092  0.55157030  0.11267884    -0.26200
C335        C  0.68598950  0.58210117  0.12015297    -0.15440
C336        C  0.67365067  0.57616069  0.15593616     0.36890
N337        N  0.60664708  0.57166416  0.16815723    -0.89690
H338        H  0.71531389  0.54789350  0.20427317     0.18010
H339        H  0.75344942  0.52826364  0.08813872     0.18000
N340        N  0.87020560  0.53861332  0.12454717    -0.88710
H341        H  0.60477324  0.54784478  0.19148361     0.35380
H342        H  0.57758379  0.54438030  0.15049926     0.40470
H343        H  0.90564897  0.54388951  0.14439691     0.40090
H344        H  0.88230595  0.57308135  0.10627461     0.34980
C345        C  0.92168895  0.78362480  0.13737347    -0.26750
C346        C  0.86052501  0.78941164  0.11746840    -0.14820
C347        C  0.81392630  0.74797756  0.13004255     0.35810
C348        C  0.83036188  0.68657256  0.13517197    -0.26200
C349        C  0.87457392  0.67831705  0.16229100    -0.15440
C350        C  0.92701498  0.73000067  0.16233518     0.36890
N351        N  0.97916495  0.73283553  0.18796216    -0.89690
H352        H  0.96085544  0.82057194  0.13574762     0.18010
H353        H  0.78330484  0.66282872  0.13283537     0.18000
N354        N  0.77165684  0.77554157  0.15393597    -0.88710
H355        H  0.01442809  0.76931887  0.18255840     0.35380
H356        H  0.00305317  0.68828769  0.18854103     0.40470
H357        H  0.75249445  0.74203337  0.17019349     0.40090
H358        H  0.73440754  0.79280965  0.13895818     0.34980
C359        C  0.54954728  0.72853500  0.17359878    -0.26750
C360        C  0.60092482  0.78207719  0.17269791    -0.14820
C361        C  0.61595538  0.78454670  0.13868437     0.35810
C362        C  0.64257833  0.72524842  0.12891972    -0.26200
C363        C  0.60021871  0.67614358  0.11940381    -0.15440
C364        C  0.54584096  0.67748108  0.14482698     0.36890
N365        N  0.48967167  0.63299011  0.14217926    -0.89690
H366        H  0.51397803  0.72601379  0.19411550     0.18010
H367        H  0.67871735  0.70174128  0.14415256     0.18000
N368        N  0.56412533  0.81008930  0.11693578    -0.88710
H369        H  0.48609047  0.60688658  0.16470771     0.35380
H370        H  0.49563693  0.60022410  0.12157851     0.40470
H371        H  0.54729959  0.77712967  0.09802129     0.40090
H372        H  0.58315617  0.84892577  0.10403933     0.34980
C373        C  0.76617334  0.89341476  0.18328652    -0.26750
C374        C  0.69499277  0.87906491  0.17932091    -0.14820
C375        C  0.67220975  0.90601224  0.14873225     0.35810
C376        C  0.71548470  0.90678644  0.11941412    -0.26200
C377        C  0.78548009  0.89154218  0.12058152    -0.15440
C378        C  0.81061761  0.90109809  0.15474149     0.36890
N379        N  0.88142982  0.91128513  0.16057404    -0.89690
H380        H  0.78905620  0.90160629  0.20778207     0.18010
H381        H  0.69628669  0.92814151  0.09745286     0.18000
N382        N  0.60611015  0.93335239  0.14792830    -0.88710
H383        H  0.89204192  0.91903285  0.18660884     0.35380
H384        H  0.89644354  0.95347629  0.14807345     0.40470
H385        H  0.56957554  0.90273969  0.15794950     0.40090
H386        H  0.59192384  0.94587631  0.12316841     0.34980
C387        C  0.73539914  0.66556755  0.22709984    -0.26750
C388        C  0.80098827  0.68151548  0.21639637    -0.14820
C389        C  0.81531390  0.74947937  0.22476055     0.35810
C390        C  0.76125159  0.79355805  0.23165793    -0.26200
C391        C  0.69417791  0.77822155  0.22184330    -0.15440
C392        C  0.68130123  0.71026369  0.22572422     0.36890
N393        N  0.61683478  0.68690177  0.23539086    -0.89690
H394        H  0.72688335  0.61970865  0.23906107     0.18010
H395        H  0.77149446  0.83946231  0.24473848     0.18000
N396        N  0.88227637  0.77558320  0.22567574    -0.88710
H397        H  0.59966153  0.65159953  0.21769245     0.35380
H398        H  0.58357680  0.72560586  0.23646846     0.40470
H399        H  0.91164047  0.75000945  0.24285504     0.40090
H400        H  0.88329221  0.82473230  0.23367420     0.34980
C401        C  0.05993365  0.69119969  0.40741654    -0.26750
C402        C  0.07367958  0.70542571  0.37275615    -0.14820
C403        C  0.05579818  0.77274571  0.36727323     0.35810
C404        C  0.06849541  0.81872084  0.39417655    -0.26200
C405        C  0.09560742  0.79895618  0.42536650    -0.15440
C406        C  0.06140392  0.74094646  0.43276549     0.36890
N407        N  0.01127242  0.74115548  0.45880388    -0.89690
H408        H  0.03035228  0.64939802  0.41322819     0.18010
H409        H  0.03596979  0.86039383  0.39498938     0.18000
N410        N  0.00621507  0.79112457  0.34224357    -0.88710
H411        H  0.98448112  0.69689492  0.45840854     0.35380
H412        H  0.97875059  0.77909650  0.45459607     0.40470
H413        H  0.99827916  0.75507623  0.32337692     0.40090
H414        H  0.02202269  0.83409195  0.33064777     0.34980
C415        C  0.13440397  0.75921674  0.31331593    -0.26750
C416        C  0.14828807  0.69491782  0.32123533    -0.14820
C417        C  0.20785709  0.67673715  0.30620675     0.35810
C418        C  0.25852582  0.72535770  0.30275139    -0.26200
C419        C  0.25294581  0.78539362  0.32044195    -0.15440
C420        C  0.18468001  0.80752569  0.31790378     0.36890
N421        N  0.16697724  0.87333174  0.30939012    -0.89690
H422        H  0.08902737  0.76969225  0.29965255     0.18010
H423        H  0.29831509  0.71998366  0.28499011     0.18000
N424        N  0.21007155  0.61724090  0.28724299    -0.88710
H425        H  0.11980394  0.87637125  0.29750404     0.35380
H426        H  0.20322744  0.89513835  0.29431202     0.40470
H427        H  0.16542985  0.59008371  0.28754506     0.40090
H428        H  0.24980707  0.58976103  0.29611623     0.34980
C429        C  0.23161266  0.89985985  0.36685898    -0.26750
C430        C  0.29105815  0.86714022  0.37035899    -0.14820
C431        C  0.31719905  0.88353042  0.40375504     0.35810
C432        C  0.27065044  0.88995997  0.43097670    -0.26200
C433        C  0.20053398  0.87821179  0.42519155    -0.15440
C434        C  0.18301193  0.90016667  0.39258484     0.36890
N435        N  0.12480487  0.93797472  0.38776263    -0.89690
H436        H  0.22984665  0.93275762  0.34670270     0.18010
H437        H  0.28814612  0.91135790  0.45498452     0.18000
N438        N  0.38147471  0.91570107  0.40829626    -0.88710
H439        H  0.09820318  0.92401710  0.36544738     0.35380
H440        H  0.09606338  0.94330770  0.40977369     0.40470
H441        H  0.40815230  0.91517208  0.38546741     0.40090
H442        H  0.40890287  0.89284501  0.42749205     0.34980
C443        C  0.18792299  0.56794926  0.42437192    -0.26750
C444        C  0.25586875  0.57959013  0.41506878    -0.14820
C445        C  0.26213278  0.56283957  0.38006528     0.35810
C446        C  0.20916929  0.57564078  0.35707956    -0.26200
C447        C  0.15181876  0.60718836  0.36857499    -0.15440
C448        C  0.13484787  0.57865518  0.40014867     0.36890
N449        N  0.06965366  0.54909466  0.40405681    -0.89690
H450        H  0.17704355  0.54427617  0.44801836     0.18010
H451        H  0.20379090  0.54367581  0.33504093     0.18000
N452        N  0.31067603  0.51663218  0.36989761    -0.88710
H453        H  0.06144132  0.53816856  0.42962549     0.35380
H454        H  0.06666068  0.50630342  0.38899499     0.40470
H455        H  0.34837869  0.51349321  0.38869260     0.40090
H456        H  0.33015508  0.52799365  0.34605594     0.34980
C457        C  0.26666902  0.78723308  0.47276951    -0.26750
C458        C  0.19625562  0.78244173  0.46684383    -0.14820
C459        C  0.17264757  0.72012022  0.47652010     0.35810
C460        C  0.21409389  0.66580508  0.47295515    -0.26200
C461        C  0.27812503  0.67295407  0.45992280    -0.15440
C462        C  0.30750414  0.73214195  0.47194437     0.36890
N463        N  0.36383331  0.73197776  0.49515686    -0.89690
H464        H  0.28968272  0.83063732  0.48319532     0.18010
H465        H  0.19826372  0.61956639  0.48139764     0.18000
N466        N  0.10995008  0.71284632  0.49233663    -0.88710
H467        H  0.39270291  0.77498216  0.49396160     0.35380
H468        H  0.39221750  0.68990770  0.49273864     0.40470
H469        H  0.10166548  0.75053044  0.50962417     0.40090
H470        H  0.09637826  0.66597975  0.49946852     0.34980
C471        C  0.38672025  0.76874095  0.39058043    -0.26750
C472        C  0.35428327  0.75683541  0.35940409    -0.14820
C473        C  0.36217405  0.68882875  0.34942471     0.35810
C474        C  0.37030661  0.64212442  0.37555802    -0.26200
C475        C  0.36114936  0.65835197  0.41043015    -0.15440
C476        C  0.39003714  0.72097156  0.41589029     0.36890
N477        N  0.43741873  0.73020949  0.44247697    -0.89690
H478        H  0.42010943  0.81000706  0.39225391     0.18010
H479        H  0.39737021  0.59856872  0.36927520     0.18000
N480        N  0.37675034  0.66797428  0.31496688    -0.88710
H481        H  0.45798053  0.77726584  0.44152293     0.35380
H482        H  0.47251235  0.69343222  0.44019820     0.40470
H483        H  0.42348673  0.64702783  0.31246424     0.40090
H484        H  0.34506697  0.62849198  0.30896571     0.34980
C485        C  0.75428317  0.05440610  0.35622716    -0.26750
C486        C  0.69127627  0.08405877  0.36362512    -0.14820
C487        C  0.67371936  0.07225047  0.39805805     0.35810
C488        C  0.72511081  0.05685146  0.42193366    -0.26200
C489        C  0.79178290  0.07510815  0.41646438    -0.15440
C490        C  0.80719068  0.05483702  0.38201599     0.36890
N491        N  0.87042279  0.02691457  0.37362009    -0.89690
H492        H  0.76505294  0.03843310  0.33032970     0.18010
H493        H  0.71302372  0.03596146  0.44601099     0.18000
N494        N  0.60599104  0.06107890  0.40801075    -0.88710
H495        H  0.89030644  0.05006862  0.35243441     0.35380
H496        H  0.90378751  0.03060204  0.39451226     0.40470
H497        H  0.57363761  0.05500336  0.38688270     0.40090
H498        H  0.59117328  0.09444638  0.42689488     0.34980
C499        C  0.73098886  0.29394377  0.31121958    -0.26750
C500        C  0.78150244  0.28737066  0.33809294    -0.14820
C501        C  0.78263263  0.22269523  0.34767877     0.35810
C502        C  0.76876461  0.17434722  0.32357187    -0.26200
C503        C  0.70239958  0.17290219  0.31460828    -0.15440
C504        C  0.68817388  0.23598160  0.30042474     0.36890
N505        N  0.62419737  0.24317100  0.28365022    -0.89690
H506        H  0.71844063  0.34174508  0.30300270     0.18010
H507        H  0.80193402  0.13397693  0.32111507     0.18000
N508        N  0.77351324  0.20872546  0.38244161    -0.88710
H509        H  0.61119165  0.29228065  0.28249974     0.35380
H510        H  0.58586789  0.21698264  0.29524412     0.40470
H511        H  0.72667288  0.19043734  0.38757257     0.40090
H512        H  0.79717802  0.16677761  0.38320789     0.34980
C513        C  0.87967580  0.30059338  0.41943219    -0.26750
C514        C  0.87647208  0.29485648  0.38401436    -0.14820
C515        C  0.90929048  0.23754960  0.37204421     0.35810
C516        C  0.90925418  0.18073632  0.39354325    -0.26200
C517        C  0.88196015  0.18347285  0.42710113    -0.15440
C518        C  0.89082548  0.24882873  0.44059600     0.36890
N519        N  0.92314003  0.26558782  0.47302119    -0.89690
H520        H  0.89717681  0.34415139  0.43083590     0.18010
H521        H  0.91758850  0.13470444  0.38223821     0.18000
N522        N  0.92367585  0.23252945  0.33641401    -0.88710
H523        H  0.89497370  0.30285460  0.48429147     0.35380
H524        H  0.96718462  0.29229815  0.46959534     0.40470
H525        H  0.97510732  0.23818351  0.33407981     0.40090
H526        H  0.90744568  0.18744690  0.32603693     0.34980
C527        C  0.56299516  0.18270513  0.38674865    -0.26750
C528        C  0.60997781  0.18754204  0.35973421    -0.14820
C529        C  0.62954274  0.25395292  0.35939285     0.35810
C530        C  0.65418290  0.27855919  0.38998761    -0.26200
C531        C  0.61236850  0.28358871  0.41738092    -0.15440
C532        C  0.56207293  0.23243936  0.41427429     0.36890
N533        N  0.50922630  0.22992658  0.43676579    -0.89690
H534        H  0.52497798  0.14468115  0.38598628     0.18010
H535        H  0.70462377  0.29496435  0.39210520     0.18000
N536        N  0.58545394  0.29782587  0.34242991    -0.88710
H537        H  0.50506717  0.18276726  0.44625558     0.35380
H538        H  0.50859057  0.26819262  0.45450602     0.40470
H539        H  0.54849226  0.31374276  0.35905279     0.40090
H540        H  0.61300505  0.33875770  0.33528531     0.34980
C541        C  0.74879562  0.28156154  0.48198815    -0.26750
C542        C  0.68001545  0.27783807  0.47112151    -0.14820
C543        C  0.65604079  0.21213030  0.47228737     0.35810
C544        C  0.69949131  0.16183024  0.46323851    -0.26200
C545        C  0.76975127  0.17265724  0.46063829    -0.15440
C546        C  0.78698163  0.22313160  0.48312659     0.36890
N547        N  0.83808549  0.20917339  0.50768273    -0.89690
H548        H  0.77285051  0.32603881  0.48961708     0.18010
H549        H  0.67799573  0.11532856  0.46810999     0.18000
N550        N  0.59055239  0.19435122  0.48373253    -0.88710
H551        H  0.85307862  0.24774988  0.52334410     0.35380
H552        H  0.82239940  0.16947587  0.52152877     0.40470
H553        H  0.56712130  0.23162466  0.49703847     0.40090
H554        H  0.58989972  0.15345131  0.49879462     0.34980
C555        C  0.75002576  0.40119798  0.44176275    -0.26750
C556        C  0.68443261  0.38539420  0.43174940    -0.14820
C557        C  0.66827114  0.40948012  0.39869357     0.35810
C558        C  0.71918862  0.40661377  0.37289135    -0.26200
C559        C  0.78639036  0.39070457  0.38196538    -0.15440
C560        C  0.80040388  0.40855214  0.41707535     0.36890
N561        N  0.85903128  0.44641325  0.42696313    -0.89690
H562        H  0.75989731  0.41628682  0.46802537     0.18010
H563        H  0.70502133  0.41105938  0.34639741     0.18000
N564        N  0.59969507  0.42337535  0.39014816    -0.88710
H565        H  0.87296979  0.43841518  0.45241337     0.35380
H566        H  0.89924703  0.43594939  0.41102297     0.40470
H567        H  0.56558097  0.38920905  0.39918354     0.40090
H568        H  0.59294287  0.42726106  0.36379147     0.34980
C569        C  0.15414985  0.70220736  0.21966450    -0.26750
C570        C  0.18036418  0.63928497  0.21150851    -0.14820
C571        C  0.25297631  0.64170505  0.21982354     0.35810
C572        C  0.29076988  0.70196987  0.22122946    -0.26200
C573        C  0.26381352  0.76191821  0.21114143    -0.15440
C574        C  0.19466916  0.76162235  0.22037062     0.36890
N575        N  0.17871705  0.80499159  0.24734700    -0.89690
H576        H  0.10075088  0.70621780  0.22361456     0.18010
H577        H  0.34398082  0.70049145  0.22747319     0.18000
N578        N  0.28688896  0.59163647  0.23777249    -0.88710
H579        H  0.12764042  0.81559058  0.24725237     0.35380
H580        H  0.21147347  0.84518665  0.24788428     0.40470
H581        H  0.25576685  0.55178210  0.24299219     0.40090
H582        H  0.33347569  0.58095635  0.22714448     0.34980
C583        C  0.04383498  0.64276734  0.13230262    -0.26750
C584        C  0.09904382  0.63975394  0.15663967    -0.14820
C585        C  0.14146352  0.68663862  0.14993660     0.35810
C586        C  0.12578997  0.74715959  0.14082950    -0.26200
C587        C  0.08363997  0.75788037  0.11339428    -0.15440
C588        C  0.03670575  0.70029516  0.10966525     0.36890
N589        N  0.98221450  0.69764113  0.08531401    -0.89690
H590        H  0.00835153  0.60238169  0.13005100     0.18010
H591        H  0.16902315  0.77468275  0.14608894     0.18000
N592        N  0.20529708  0.66649094  0.14679178    -0.88710
H593        H  0.99112411  0.66091376  0.06700446     0.35380
H594        H  0.97713538  0.74191015  0.07333676     0.40470
H595        H  0.21096060  0.65817881  0.12099870     0.40090
H596        H  0.23117866  0.69751933  0.16273484     0.34980
C597        C  0.13871320  0.88104401  0.14467957    -0.26750
C598        C  0.15981382  0.86699683  0.11104457    -0.14820
C599        C  0.22658117  0.89279984  0.10765303     0.35810
C600        C  0.27432736  0.88813685  0.13553840    -0.26200
C601        C  0.25614918  0.86394872  0.16773305    -0.15440
C602        C  0.18568776  0.88019003  0.17311013     0.36890
N603        N  0.16030578  0.90134422  0.20527504    -0.89690
H604        H  0.08537286  0.88021747  0.14982589     0.18010
H605        H  0.32528328  0.90334349  0.13159333     0.18000
N606        N  0.23616839  0.94774922  0.08603070    -0.88710
H607        H  0.14748525  0.95015716  0.20444773     0.35380
H608        H  0.11320385  0.87886107  0.20749712     0.40470
H609        H  0.20073441  0.94742125  0.06607818     0.40090
H610        H  0.28458305  0.94753367  0.07606099     0.34980
C611        C  0.35050065  0.71420430  0.16257626    -0.26750
C612        C  0.36562796  0.77912112  0.16759957    -0.14820
C613        C  0.41157989  0.79264079  0.13805502     0.35810
C614        C  0.41463904  0.74046820  0.10824557    -0.26200
C615        C  0.36547037  0.68348607  0.10746498    -0.15440
C616        C  0.32256298  0.70522378  0.13039183     0.36890
N617        N  0.28232606  0.75958327  0.11986195    -0.89690
H618        H  0.38693254  0.67959622  0.17172427     0.18010
H619        H  0.44402899  0.74912921  0.08583696     0.18000
N620        N  0.44403539  0.85499648  0.13506403    -0.88710
H621        H  0.23751363  0.74709889  0.10996663     0.35380
H622        H  0.30676980  0.79135602  0.10366735     0.40470
H623        H  0.43184491  0.88531623  0.15586659     0.40090
H624        H  0.42658073  0.87618489  0.11265320     0.34980
C625        C  0.30647014  0.56499768  0.14312443    -0.26750
C626        C  0.28984351  0.57423364  0.10816115    -0.14820
C627        C  0.23092776  0.53758291  0.09926871     0.35810
C628        C  0.17609578  0.53448280  0.12332182    -0.26200
C629        C  0.18670777  0.54531264  0.15933523    -0.15440
C630        C  0.25709810  0.54135389  0.16663557     0.36890
N631        N  0.27856882  0.50038653  0.19337385    -0.89690
H632        H  0.35789870  0.57232824  0.15175245     0.18010
H633        H  0.12572072  0.52502599  0.11371623     0.18000
N634        N  0.23308894  0.49230271  0.07052288    -0.88710
H635        H  0.32419833  0.47743311  0.18960034     0.35380
H636        H  0.23952664  0.47305516  0.20377133     0.40470
H637        H  0.25554237  0.51332367  0.04953120     0.40090
H638        H  0.18457653  0.47917706  0.06239106     0.34980
C639        C  0.28342568  0.73049952  0.05119185    -0.26750
C640        C  0.26961368  0.66534069  0.06046970    -0.14820
C641        C  0.19852266  0.65089844  0.05664467     0.35810
C642        C  0.15157868  0.70029961  0.06039623    -0.26200
C643        C  0.16792301  0.76649660  0.06417178    -0.15440
C644        C  0.23360715  0.78065786  0.05179886     0.36890
N645        N  0.25374992  0.84561050  0.04472692    -0.89690
H646        H  0.33508709  0.74676460  0.05168752     0.18010
H647        H  0.09979030  0.68624515  0.05801004     0.18000
N648        N  0.17016935  0.58913818  0.04616870    -0.88710
H649        H  0.30446642  0.84889492  0.03837544     0.35380
H650        H  0.22438353  0.86174092  0.02469239     0.40470
H651        H  0.14563150  0.59009532  0.02277834     0.40090
H652        H  0.13133687  0.57810837  0.06287430     0.34980
C653        C  0.24349248  0.39463069  0.35924912    -0.26750
C654        C  0.18186676  0.37086553  0.37083751    -0.14820
C655        C  0.17807966  0.38638543  0.40664180     0.35810
C656        C  0.23775153  0.39659718  0.42636050    -0.26200
C657        C  0.29785305  0.37159850  0.41367205    -0.15440
C658        C  0.30351415  0.38129805  0.37787094     0.36890
N659        N  0.36540689  0.40081560  0.36269925    -0.89690
H660        H  0.24490274  0.41985307  0.33529380     0.18010
H661        H  0.23480392  0.41208731  0.45287670     0.18000
N662        N  0.11756718  0.40396275  0.42245749    -0.88710
H663        H  0.37909537  0.36731690  0.34360738     0.35380
H664        H  0.40277677  0.41129691  0.38114824     0.40470
H665        H  0.12343737  0.45160231  0.43157548     0.40090
H666        H  0.11517760  0.37745555  0.44465365     0.34980
C667        C  0.23478692  0.17052708  0.44665698    -0.26750
C668        C  0.16950288  0.17617797  0.45473969    -0.14820
C669        C  0.16169261  0.24092377  0.47161722     0.35810
C670        C  0.21889091  0.28829643  0.47258601    -0.26200
C671        C  0.27531599  0.27729034  0.45049765    -0.15440
C672        C  0.25830033  0.22373069  0.42998026     0.36890
N673        N  0.25888492  0.22655166  0.39391660    -0.89690
H674        H  0.26260530  0.15871558  0.46962951     0.18010
H675        H  0.21565259  0.33341113  0.48715632     0.18000
N676        N  0.10080997  0.26101315  0.48610096    -0.88710
H677        H  0.24097199  0.18226280  0.38458957     0.35380
H678        H  0.22511185  0.26159296  0.38710041     0.40470
H679        H  0.06701214  0.22237653  0.48536256     0.40090
H680        H  0.08118377  0.30003644  0.47311426     0.34980
C681        C  0.10911611  0.19938188  0.36422246    -0.26750
C682        C  0.10109623  0.26658161  0.37100374    -0.14820
C683        C  0.05701551  0.27581783  0.39920011     0.35810
C684        C  0.04658742  0.22125629  0.42158514    -0.26200
C685        C  0.06768030  0.15713504  0.41399832    -0.15440
C686        C  0.06967921  0.15268309  0.37875055     0.36890
N687        N  0.02749352  0.10935662  0.35793321    -0.89690
H688        H  0.15418385  0.17970060  0.35637581     0.18010
H689        H  0.01251582  0.22288664  0.44125208     0.18000
N690        N  0.01317329  0.33033341  0.40189377    -0.88710
H691        H  0.05493842  0.09133982  0.33731886     0.35380
H692        H  0.99406878  0.13713626  0.34457670     0.40470
H693        H  0.02499326  0.36746509  0.38538563     0.40090
H694        H  0.01261373  0.34874356  0.42691801     0.34980
C695        C  0.41224970  0.27668343  0.38534903    -0.26750
C696        C  0.38379762  0.27007784  0.41809846    -0.14820
C697        C  0.38608608  0.20305283  0.42872811     0.35810
C698        C  0.38597983  0.15176590  0.40356062    -0.26200
C699        C  0.37844333  0.16460135  0.36823678    -0.15440
C700        C  0.41318620  0.22278151  0.36122618     0.36890
N701        N  0.45454922  0.22369037  0.33175838    -0.89690
H702        H  0.44406510  0.31821632  0.38121482     0.18010
H703        H  0.39900648  0.10426597  0.41200660     0.18000
N704        N  0.38156944  0.18757757  0.46446481    -0.88710
H705        H  0.47232074  0.27045714  0.32683883     0.35380
H706        H  0.49189507  0.18901404  0.33278044     0.40470
H707        H  0.41885877  0.21210138  0.47889630     0.40090
H708        H  0.38804894  0.13752975  0.46788997     0.34980
C709        C  0.21912049  0.16912108  0.30538541    -0.26750
C710        C  0.28336192  0.18020541  0.32087333    -0.14820
C711        C  0.30195778  0.24590011  0.31459508     0.35810
C712        C  0.25252944  0.29447189  0.31535128    -0.26200
C713        C  0.18366776  0.28097278  0.31975904    -0.15440
C714        C  0.16882977  0.21928244  0.30335426     0.36890
N715        N  0.10208829  0.20254386  0.29107470    -0.89690
H716        H  0.20773880  0.12339856  0.29458699     0.18010
H717        H  0.26738434  0.34092754  0.30613688     0.18000
N718        N  0.36166232  0.26008185  0.29625887    -0.88710
H719        H  0.09689057  0.15190655  0.28741540     0.35380
H720        H  0.06508716  0.21652174  0.30770629     0.40470
H721        H  0.37159924  0.22216233  0.27895737     0.40090
H722        H  0.36107170  0.30465618  0.28388323     0.34980
C723        C  0.28845761  0.05178792  0.39574006    -0.26750
C724        C  0.27765362  0.07672356  0.36203921    -0.14820
C725        C  0.21014511  0.06122855  0.35235475     0.35810
C726        C  0.15982586  0.06074091  0.37771767    -0.26200
C727        C  0.17012629  0.07270405  0.41311576    -0.15440
C728        C  0.23628581  0.04969592  0.42126514     0.36890
N729        N  0.25289099  0.02822900  0.45498809    -0.89690
H730        H  0.33549505  0.02972364  0.40172461     0.18010
H731        H  0.11246873  0.04095816  0.37037949     0.18000
N732        N  0.19452372  0.02542383  0.32105987    -0.88710
H733        H  0.29429243  0.05502062  0.46461461     0.35380
H734        H  0.21281133  0.03570382  0.47145690     0.40470
H735        H  0.23492965  0.02472028  0.30433825     0.40090
H736        H  0.15060211  0.04224451  0.30949057     0.34980
C737        C  0.05411886  0.27784105  0.13871228    -0.26750
C738        C  0.08152639  0.26581666  0.17158299    -0.14820
C739        C  0.07002389  0.19844399  0.17771706     0.35810
C740        C  0.08338610  0.15226910  0.15148477    -0.26200
C741        C  0.08449615  0.16760575  0.11627157    -0.15440
C742        C  0.04743455  0.22713176  0.11278637     0.36890
N743        N  0.98289684  0.22456177  0.09574382    -0.89690
H744        H  0.01880744  0.31675420  0.13737403     0.18010
H745        H  0.06965362  0.10451726  0.15813785     0.18000
N746        N  0.02274417  0.17829578  0.20324968    -0.88710
H747        H  0.97123430  0.27000375  0.08566357     0.35380
H748        H  0.98064246  0.18866117  0.07651663     0.40470
H749        H  0.01425193  0.21517417  0.22147569     0.40090
H750        H  0.03862710  0.13586467  0.21517708     0.34980
C751        C  0.29776574  0.23437212  0.22681259    -0.26750
C752        C  0.27977900  0.16685024  0.21903288    -0.14820
C753        C  0.21096357  0.15441678  0.22536823     0.35810
C754        C  0.16608935  0.20698848  0.22559616    -0.26200
C755        C  0.18156689  0.27134471  0.21686788    -0.15440
C756        C  0.24863210  0.28534829  0.22799064     0.36890
N757        N  0.26451500  0.34562986  0.24622063    -0.89690
H758        H  0.35008602  0.24934732  0.22632934     0.18010
H759        H  0.11815993  0.19772368  0.23432996     0.18000
N760        N  0.18572496  0.09334720  0.23750065    -0.88710
H761        H  0.31123828  0.36481024  0.23934566     0.35380
H762        H  0.22677799  0.38003355  0.24292061     0.40470
H763        H  0.22281818  0.05837600  0.23964891     0.40090
H764        H  0.14514747  0.07670629  0.22227623     0.34980
C765        C  0.25842559  0.08604094  0.10335438    -0.26750
C766        C  0.18742039  0.08702682  0.10886069    -0.14820
C767        C  0.17255215  0.05121992  0.13867166     0.35810
C768        C  0.21925194  0.05224589  0.16701300    -0.26200
C769        C  0.28534044  0.07609712  0.16457413    -0.15440
C770        C  0.30557935  0.07215604  0.12997930     0.36890
N771        N  0.37344232  0.05569499  0.12237429    -0.89690
H772        H  0.27939105  0.08677521  0.07863810     0.18010
H773        H  0.20961835  0.02338368  0.18836289     0.18000
N774        N  0.11539355  0.00773005  0.13896550    -0.88710
H775        H  0.38037278  0.05296719  0.09595450     0.35380
H776        H  0.38203803  0.00898690  0.13157709     0.40470
H777        H  0.07896266  0.01896298  0.12075257     0.40090
H778        H  0.09367339  0.00712594  0.16309663     0.34980
C779        C  0.39041503  0.25293684  0.11888852    -0.26750
C780        C  0.32534207  0.27530648  0.10871160    -0.14820
C781        C  0.27445023  0.24720867  0.12745218     0.35810
C782        C  0.28378060  0.21049796  0.15522240    -0.26200
C783        C  0.34316424  0.18334660  0.16588989    -0.15440
C784        C  0.39796339  0.20191002  0.14471736     0.36890
N785        N  0.45735047  0.16504216  0.14550049    -0.89690
H786        H  0.43363833  0.27244386  0.10626655     0.18010
H787        H  0.23685602  0.19293709  0.16524486     0.18000
N788        N  0.20768320  0.25336778  0.11749031    -0.88710
H789        H  0.45942935  0.13988117  0.12210783     0.35380
H790        H  0.45537484  0.12973878  0.16414770     0.40470
H791        H  0.18111491  0.26611849  0.13826748     0.40090
H792        H  0.19538459  0.20586552  0.11500700     0.34980
C793        C  0.24287943  0.37169465  0.16852398    -0.26750
C794        C  0.17127860  0.36375516  0.16883568    -0.14820
C795        C  0.14361701  0.38721786  0.13761643     0.35810
C796        C  0.18201609  0.38413670  0.10697847    -0.26200
C797        C  0.25372650  0.37532797  0.10685254    -0.15440
C798        C  0.28143833  0.38802987  0.13970380     0.36890
N799        N  0.35180646  0.40340640  0.14457278    -0.89690
H800        H  0.27345310  0.36900401  0.18996117     0.18010
H801        H  0.15326868  0.39157519  0.08431873     0.18000
N802        N  0.08043096  0.42003510  0.13656164    -0.88710
H803        H  0.37598883  0.36413494  0.15575874     0.35380
H804        H  0.37477940  0.41431324  0.12163840     0.40470
H805        H  0.05292859  0.41055098  0.15831398     0.40090
H806        H  0.05260154  0.40509724  0.11481408     0.34980
C807        C  0.22479142  0.16664479  0.04485401    -0.26750
C808        C  0.16174424  0.17698032  0.05989413    -0.14820
C809        C  0.13966306  0.24230288  0.05418081     0.35810
C810        C  0.18716977  0.29309620  0.04922321    -0.26200
C811        C  0.25516743  0.28269303  0.05522962    -0.15440
C812        C  0.27449047  0.21751666  0.04611515     0.36890
N813        N  0.34296328  0.20142047  0.03939026    -0.89690
H814        H  0.23683771  0.11866446  0.03477884     0.18010
H815        H  0.17136427  0.34035537  0.04099389     0.18000
N816        N  0.07044080  0.25750393  0.05077040    -0.88710
H817        H  0.35947245  0.17021121  0.05842645     0.35380
H818        H  0.37352938  0.24330479  0.04085024     0.40470
H819        H  0.04461094  0.22167134  0.03629879     0.40090
H820        H  0.06189390  0.30462435  0.04198106     0.34980
C821        C  0.29705124  0.32782618  0.58163687    -0.02920
C822        C  0.32469087  0.12520909  0.69179359    -0.02920
C823        C  0.13006111  0.12678987  0.58717797    -0.02920
C824        C  0.12925844  0.31665978  0.69505827    -0.02920
C825        C  0.32892438  0.12606518  0.84081912    -0.02920
C826        C  0.12064811  0.11990590  0.93783473    -0.02920
C827        C  0.13609762  0.32011690  0.84730271    -0.02920
C828        C  0.33614624  0.32240971  0.93742029    -0.02920
O829        O  0.41007303  0.33523923  0.99040879    -0.80570
O830        O  0.55317863  0.57475711  0.96961441    -0.80590
O831        O  0.32050586  0.54074079  0.98627272    -0.80600
O832        O  0.58518368  0.43091670  0.97122597    -0.80540
O833        O  0.41650395  0.57524595  0.96569035    -0.80660
O834        O  0.55376495  0.34120945  0.99479390    -0.80580
O835        O  0.64709067  0.54638842  0.99412190    -0.80570
O836        O  0.37857470  0.42527445  0.96697827    -0.80610
C837        C  0.37726025  0.36301442  0.96656645     1.09120
C838        C  0.61678570  0.58111727  0.97182123     1.09010
C839        C  0.35181144  0.57493268  0.96412396     1.09140
C840        C  0.58737836  0.36881038  0.97172706     1.09020
O841        O  0.54504556  0.37928548  0.56704750    -0.80570
O842        O  0.41343929  0.61723888  0.53923179    -0.80650
O843        O  0.32378686  0.40609771  0.53491873    -0.80580
O844        O  0.59835157  0.52547726  0.56267903    -0.79880
O845        O  0.55381746  0.61437998  0.54521701    -0.80610
O846        O  0.40901277  0.36936828  0.56435596    -0.80580
O847        O  0.63612177  0.40952623  0.54041179    -0.80540
O848        O  0.37013179  0.52686098  0.55629406    -0.80610
Co849      Co  0.47950197  0.36843375  0.52773512     1.51530
Co850      Co  0.48406932  0.58097099  0.50712375     1.51690
Co851      Co  0.38010792  0.47769770  0.51149052     1.51570
Co852      Co  0.58460415  0.48089215  0.51614660     1.51470
O853        O  0.48143528  0.47390527  0.51979714    -1.42500
C854        C  0.60855489  0.37853511  0.56480252     1.09050
C855        C  0.37368429  0.58856963  0.55883630     1.09140
C856        C  0.34602656  0.37039689  0.55927081     1.09080
C857        C  0.59298139  0.58643375  0.56670115     1.09050
C858        C  0.32625642  0.62753614  0.58314573    -0.02920
C859        C  0.11923066  0.81088336  0.58700327    -0.02920
C860        C  0.13582638  0.59053975  0.68300564    -0.02920
C861        C  0.30810632  0.81887439  0.69087515    -0.02920
O862        O  0.41333946  0.11170729  0.79170365    -0.80570
O863        O  0.55663434  0.83592893  0.79683088    -0.80590
O864        O  0.33261828  0.89770072  0.79794448    -0.80600
O865        O  0.64401631  0.04123663  0.79337741    -0.80540
O866        O  0.42077222  0.83823865  0.80826874    -0.80660
O867        O  0.54650873  0.08127442  0.80779020    -0.80580
O868        O  0.58437721  0.93026162  0.81922050    -0.80570
O869        O  0.36421509  0.02454641  0.81226494    -0.80610
C870        C  0.37217782  0.08594736  0.81348342     1.09120
C871        C  0.58847361  0.86706267  0.82029628     1.09010
C872        C  0.36026930  0.85280686  0.81446824     1.09140
C873        C  0.61155740  0.08299010  0.81157311     1.09020
O874        O  0.53984889  0.14250879  0.74452192    -0.80570
O875        O  0.39739812  0.83330425  0.73420423    -0.80650
O876        O  0.34126394  0.05295843  0.74027022    -0.80580
O877        O  0.62229056  0.91466538  0.74643037    -0.80560
O878        O  0.53621559  0.85696089  0.72462378    -0.80610
O879        O  0.43486825  0.07512148  0.71637499    -0.80580
O880        O  0.58115967  0.04725953  0.72958319    -0.80540
O881        O  0.33694198  0.92037758  0.72485310    -0.80610
Co882      Co  0.48889065  0.06531074  0.76208288     1.51530
Co883      Co  0.47659181  0.85587368  0.76601179     1.51690
Co884      Co  0.35834323  0.97272723  0.76855138     1.51570
Co885      Co  0.56988494  0.98665895  0.77450528     1.51470
O886        O  0.46616973  0.96200430  0.76751586    -1.42500
C887        C  0.58112486  0.11136766  0.72532757     1.09050
C888        C  0.34950218  0.86065294  0.71830316     1.09140
C889        C  0.37140176  0.08215812  0.71661384     1.09080
C890        C  0.59943837  0.86893314  0.72549046     1.09050
C891        C  0.63941482  0.32945956  0.94896120    -0.02920
C892        C  0.83035118  0.33913515  0.85978053    -0.02920
C893        C  0.65085458  0.13115339  0.83764165    -0.02920
C894        C  0.82769236  0.13012848  0.94253309    -0.02920
C895        C  0.31334699  0.61924692  0.93729672    -0.02920
C896        C  0.31639586  0.81605221  0.84107021    -0.02920
C897        C  0.10451179  0.65263066  0.84549367    -0.02920
C898        C  0.15103449  0.83707034  0.94919294    -0.02920
C899        C  0.64684393  0.82746000  0.70066774    -0.02920
C900        C  0.84469356  0.63260131  0.69165835    -0.02920
C901        C  0.64000898  0.62665712  0.59399007    -0.02920
C902        C  0.82369229  0.84166208  0.59378636    -0.02920
C903        C  0.65384221  0.62804434  0.94671240    -0.02920
C904        C  0.81420783  0.61521419  0.83375732    -0.02920
C905        C  0.63564021  0.82544742  0.84690648    -0.02920
C906        C  0.83222857  0.82877074  0.94165213    -0.02920
O907        O  0.11366024  0.04092478  0.54077814    -0.80570
O908        O  0.84266639  0.89019242  0.53814902    -0.80590
O909        O  0.89454606  0.10606955  0.55747314    -0.80600
O910        O  0.03143528  0.81603769  0.54071448    -0.80540
O911        O  0.83075641  0.01783410  0.55879144    -0.80660
O912        O  0.07539274  0.91063481  0.55741847    -0.80580
O913        O  0.93197792  0.88854028  0.56883363    -0.80570
O914        O  0.02576766  0.08025906  0.56630750    -0.80610
C915        C  0.08824528  0.07806023  0.56430393     1.09120
C916        C  0.86909733  0.87705750  0.56656213     1.09010
C917        C  0.84624744  0.07444529  0.57110533     1.09140
C918        C  0.07192945  0.84715714  0.56099806     1.09020
O919        O  0.14533793  0.92326049  0.99619564    -0.80570
O920        O  0.83137831  0.04997764  0.98627308    -0.80650
O921        O  0.05553157  0.11094300  0.99310078    -0.80580
O922        O  0.91697880  0.84325336  0.99162513    -0.80560
O923        O  0.87494940  0.92942739  0.96833855    -0.80610
O924        O  0.07230105  0.01843878  0.96714271    -0.80580
O925        O  0.04871763  0.87951170  0.97986239    -0.80540
O926        O  0.92214338  0.11042104  0.98111924    -0.80610
Co927      Co  0.06414506  0.96680162  0.51208856     1.51530
Co928      Co  0.85706802  0.97369845  0.51334352     1.51690
Co929      Co  0.97327473  0.09199913  0.52420360     1.51570
Co930      Co  0.98780030  0.89300439  0.52405149     1.51470
O931        O  0.96240546  0.99027148  0.51784528    -1.42500
C932        C  0.11400092  0.88173283  0.97666915     1.09050
C933        C  0.86364043  0.09341120  0.97102628     1.09140
C934        C  0.08058108  0.08048693  0.96740081     1.09080
C935        C  0.88274924  0.86825417  0.96668771     1.09050
C936        C  0.63020036  0.14675732  0.69746660    -0.02920
C937        C  0.79813943  0.10994556  0.59806742    -0.02920
C938        C  0.64968806  0.33944274  0.59116302    -0.02920
C939        C  0.83488448  0.33497801  0.69019460    -0.02920
O940        O  0.03352194  0.33002195  0.73586592    -0.80570
O941        O  0.01879372  0.62154396  0.79713265    -0.80590
O942        O  0.03548909  0.51716818  0.68411943    -0.80600
O943        O  0.07216307  0.41905268  0.83507234    -0.80540
O944        O  0.06569909  0.56218034  0.73381342    -0.80660
O945        O  0.03796981  0.32977351  0.80737729    -0.80580
O946        O  0.06594618  0.54447196  0.82465313    -0.80570
O947        O  0.08258099  0.42091237  0.72233935    -0.80610
C948        C  0.08041423  0.35852790  0.71972501     1.09120
C949        C  0.05813005  0.60482420  0.82173465     1.09010
C950        C  0.07702966  0.55386943  0.70113310     1.09140
C951        C  0.07933650  0.35875159  0.82810948     1.09020
O952        O  0.88841820  0.35504994  0.80574904    -0.80570
O953        O  0.94270067  0.63089359  0.73257314    -0.80650
O954        O  0.94334880  0.40221683  0.69676481    -0.80580
O955        O  0.91635301  0.54435187  0.83393818    -0.80560
O956        O  0.88111298  0.57065965  0.78343273    -0.80610
O957        O  0.89137338  0.36969799  0.74153409    -0.80580
O958        O  0.92534118  0.41493643  0.84896079    -0.80540
O959        O  0.90895828  0.53416396  0.71378722    -0.80610
Co960      Co  0.96542172  0.35697588  0.77308291     1.51530
Co961      Co  0.97250833  0.55821977  0.76021441     1.51690
Co962      Co  0.99673190  0.47641305  0.72374128     1.51570
Co963      Co  0.99364290  0.47917220  0.83003514     1.51470
O964        O  0.98180913  0.46015104  0.77653107    -1.42500
C965        C  0.88276985  0.37387040  0.83642453     1.09050
C966        C  0.90231764  0.59785669  0.71308186     1.09140
C967        C  0.89521330  0.36904309  0.70973247     1.09080
C968        C  0.87364368  0.57441694  0.81566621     1.09050
C969        C  0.73531429  0.41323008  0.67399983    -0.26750
C970        C  0.79927757  0.38817401  0.66729313    -0.14820
C971        C  0.81697607  0.39579381  0.63281779     0.35810
C972        C  0.76480660  0.40444288  0.60792656    -0.26200
C973        C  0.69628474  0.38996516  0.61479754    -0.15440
C974        C  0.68255034  0.40979458  0.64905083     0.36890
N975        N  0.62063891  0.43883051  0.65767487    -0.89690
H976        H  0.72857506  0.44109075  0.69697530     0.18010
H977        H  0.77756299  0.42440902  0.58400639     0.18000
N978        N  0.88623026  0.39226568  0.62315372    -0.88710
H979        H  0.60103595  0.41743977  0.67943926     0.35380
H980        H  0.58730219  0.43765362  0.63675657     0.40470
H981        H  0.91386736  0.42502045  0.63875415     0.40090
H982        H  0.89212907  0.41100540  0.59883848     0.34980
C983        C  0.80062703  0.23225398  0.57852235    -0.26750
C984        C  0.76624915  0.17010274  0.57799869    -0.14820
C985        C  0.70825868  0.17063600  0.55698615     0.35810
C986        C  0.67449610  0.23155435  0.55312997    -0.26200
C987        C  0.69724330  0.28998979  0.56922736    -0.15440
C988        C  0.76785098  0.29039151  0.57011749     0.36890
N989        N  0.80337087  0.33457544  0.54873448    -0.89690
H990        H  0.85405180  0.23480960  0.58341532     0.18010
H991        H  0.63064340  0.23503175  0.53834472     0.18000
N992        N  0.69529601  0.11836544  0.53273448    -0.88710
H993        H  0.84855163  0.35080179  0.55974709     0.35380
H994        H  0.77327510  0.37180968  0.53941140     0.40470
H995        H  0.72653643  0.07876897  0.53680421     0.40090
H996        H  0.64558435  0.10289242  0.53383814     0.34980
C997        C  0.90131944  0.22950123  0.66103638    -0.26750
C998        C  0.84614771  0.27319156  0.66546651    -0.14820
C999        C  0.78517485  0.24576876  0.65453743     0.35810
C1000       C  0.77720966  0.18211085  0.64690544    -0.26200
C1001       C  0.82723994  0.15094753  0.62958001    -0.15440
C1002       C  0.89154265  0.16723378  0.64159388     0.36890
N1003       N  0.93596239  0.11345893  0.64265895    -0.89690
H1004       H  0.94748012  0.24365571  0.67302682     0.18010
H1005       H  0.72586508  0.16843459  0.64164097     0.18000
N1006       N  0.72794778  0.28279986  0.65074118    -0.88710
H1007       H  0.95431974  0.10575905  0.66721894     0.35380
H1008       H  0.97063308  0.11427042  0.62327743     0.40470
H1009       H  0.69039043  0.26487868  0.66492155     0.40090
H1010       H  0.71275744  0.26935187  0.62687295     0.34980
C1011       C  0.59059346  0.18060531  0.63149353    -0.26750
C1012       C  0.59240740  0.19341546  0.66792641    -0.14820
C1013       C  0.56234223  0.25653044  0.67311009     0.35810
C1014       C  0.56993653  0.30680886  0.64744473    -0.26200
C1015       C  0.59868465  0.29385072  0.61452887    -0.15440
C1016       C  0.58439623  0.22817263  0.60617488     0.36890
N1017       N  0.54587396  0.21202911  0.57555265    -0.89690
H1018       H  0.56980727  0.13644884  0.62122690     0.18010
H1019       H  0.53965815  0.34939796  0.65031281     0.18000
N1020       N  0.51936591  0.26764465  0.70189190    -0.88710
H1021       H  0.49613516  0.20311930  0.58159836     0.35380
H1022       H  0.56217093  0.16726263  0.56551884     0.40470
H1023       H  0.47990490  0.23355097  0.70080458     0.40090
H1024       H  0.49815220  0.31399790  0.70085354     0.34980
C1025       C  0.80456236  0.23736289  0.72883156    -0.26750
C1026       C  0.78821111  0.30090548  0.71863911    -0.14820
C1027       C  0.72083239  0.31483120  0.72571338     0.35810
C1028       C  0.67191114  0.26367440  0.72303043    -0.26200
C1029       C  0.68659398  0.19620936  0.71683110    -0.15440
C1030       C  0.75605953  0.18514165  0.72679058     0.36890
N1031       N  0.77954225  0.12411443  0.73780675    -0.89690
H1032       H  0.85711900  0.22529075  0.73184315     0.18010
H1033       H  0.62214356  0.27883038  0.72642846     0.18000
N1034       N  0.70314438  0.37728520  0.74012876    -0.88710
H1035       H  0.82209295  0.11317411  0.72346420     0.35380
H1036       H  0.79650218  0.12932698  0.76298884     0.40470
H1037       H  0.74014205  0.39345467  0.75768275     0.40090
H1038       H  0.65669265  0.37560751  0.75211166     0.34980
C1039       C  0.63752911  0.06119973  0.64625464    -0.26750
C1040       C  0.66531510  0.08736569  0.67639748    -0.14820
C1041       C  0.72745844  0.05688006  0.68211188     0.35810
C1042       C  0.76915053  0.04323590  0.65306159    -0.26200
C1043       C  0.74871629  0.06069213  0.61881916    -0.15440
C1044       C  0.67695988  0.05753430  0.61595737     0.36890
N1045       N  0.64317126  0.04819805  0.58379857    -0.89690
H1046       H  0.58369419  0.05268006  0.64552253     0.18010
H1047       H  0.82107421  0.03254206  0.65831329     0.18000
N1048       N  0.73270878  0.01444884  0.71070201    -0.88710
H1049       H  0.66068548  0.00701002  0.57087294     0.35380
H1050       H  0.59144644  0.04158426  0.58675221     0.40470
H1051       H  0.70449128  0.03112833  0.73129810     0.40090
H1052       H  0.78288074  0.01049592  0.71846211     0.34980
C1053       C  0.75637511  0.88804370  0.85794120    -0.26750
C1054       C  0.68840141  0.87604772  0.86680993    -0.14820
C1055       C  0.67664140  0.90552368  0.89941868     0.35810
C1056       C  0.72956281  0.91017112  0.92475293    -0.26200
C1057       C  0.79309290  0.88283289  0.91843975    -0.15440
C1058       C  0.80897569  0.88994715  0.88307488     0.36890
N1059       N  0.87734221  0.89438846  0.87213403    -0.89690
H1060       H  0.76850125  0.90422015  0.83282578     0.18010
H1061       H  0.72014431  0.93366261  0.94875812     0.18000
N1062       N  0.61539779  0.93854300  0.90556656    -0.88710
H1063       H  0.88709335  0.85405339  0.85635547     0.35380
H1064       H  0.91030887  0.89353670  0.89316050     0.40470
H1065       H  0.57727208  0.92524450  0.88798762     0.40090
H1066       H  0.60086114  0.93526573  0.93104922     0.34980
C1067       C  0.69964767  0.65273621  0.80464950    -0.26750
C1068       C  0.76979724  0.66008827  0.80811563    -0.14820
C1069       C  0.78856867  0.72735669  0.80363899     0.35810
C1070       C  0.74243631  0.77900115  0.81043535    -0.26200
C1071       C  0.67716742  0.76910590  0.82397043    -0.15440
C1072       C  0.65375131  0.70436338  0.81265854     0.36890
N1073       N  0.58441967  0.69024946  0.80616239    -0.89690
H1074       H  0.68008862  0.60689397  0.79439286     0.18010
H1075       H  0.75796110  0.82597514  0.80243836     0.18000
N1076       N  0.85666393  0.74526159  0.79707193    -0.88710
H1077       H  0.57585333  0.64292480  0.79616982     0.35380
H1078       H  0.56464225  0.72299113  0.78912314     0.40470
H1079       H  0.88524504  0.70352228  0.79320606     0.40090
H1080       H  0.87613484  0.77123358  0.81825339     0.34980
C1081       C  0.90084806  0.74930652  0.89754413    -0.26750
C1082       C  0.84265813  0.77605283  0.91168655    -0.14820
C1083       C  0.78265350  0.74883974  0.89720481     0.35810
C1084       C  0.78024690  0.69857455  0.87489534    -0.26200
C1085       C  0.83465598  0.67013888  0.86103433    -0.15440
C1086       C  0.89622473  0.69520942  0.87336351     0.36890
N1087       N  0.95358833  0.66645468  0.86114932    -0.89690
H1088       H  0.94774558  0.77161458  0.90368425     0.18010
H1089       H  0.73061081  0.68050777  0.86778507     0.18000
N1090       N  0.71795845  0.76575011  0.90599230    -0.88710
H1091       H  0.94878188  0.66579432  0.83493448     0.35380
H1092       H  0.95878912  0.62031798  0.87119407     0.40470
H1093       H  0.71158153  0.79859416  0.92499589     0.40090
H1094       H  0.70292239  0.72426660  0.91706421     0.34980
C1095       C  0.58756393  0.79892554  0.91343866    -0.26750
C1096       C  0.59466260  0.78431465  0.87732084    -0.14820
C1097       C  0.56392462  0.72249827  0.87245467     0.35810
C1098       C  0.57054540  0.67254535  0.89740053    -0.26200
C1099       C  0.60124100  0.68188796  0.92967627    -0.15440
C1100       C  0.59022926  0.74949437  0.93952594     0.36890
N1101       N  0.55749370  0.76485685  0.97130605    -0.89690
H1102       H  0.56168080  0.84182920  0.92103741     0.18010
H1103       H  0.52984861  0.63737504  0.89740856     0.18000
N1104       N  0.50156422  0.72105920  0.85476162    -0.88710
H1105       H  0.58061631  0.80282522  0.98541990     0.35380
H1106       H  0.54850867  0.72345006  0.98586233     0.40470
H1107       H  0.50018665  0.75463072  0.83516474     0.40090
H1108       H  0.49681687  0.67365901  0.84507549     0.34980
C1109       C  0.70335997  0.55585774  0.85440887    -0.26750
C1110       C  0.77309117  0.56728852  0.85802706    -0.14820
C1111       C  0.79634247  0.55805122  0.89234989     0.35810
C1112       C  0.74954950  0.55700066  0.91915365    -0.26200
C1113       C  0.68619344  0.58435376  0.91578201    -0.15440
C1114       C  0.65924769  0.56752153  0.88218361     0.36890
N1115       N  0.59143277  0.54555576  0.87667681    -0.89690
H1116       H  0.68314193  0.53543559  0.83072356     0.18010
H1117       H  0.76087137  0.53126038  0.94161776     0.18000
N1118       N  0.86622969  0.56710127  0.90105844    -0.88710
H1119       H  0.56761459  0.57167305  0.85743777     0.35380
H1120       H  0.56505377  0.54251664  0.89948895     0.40470
H1121       H  0.89390710  0.53028072  0.88977260     0.40090
H1122       H  0.87561016  0.56701077  0.92729794     0.34980
C1123       C  0.69559197  0.72649324  0.98628237    -0.26750
C1124       C  0.71169319  0.66741980  0.96972586    -0.14820
C1125       C  0.78357723  0.66004337  0.97018641     0.35810
C1126       C  0.82563867  0.71641984  0.97088073    -0.26200
C1127       C  0.79829489  0.77947669  0.96761400    -0.15440
C1128       C  0.73507550  0.78415863  0.98245283     0.36890
N1129       N  0.70742536  0.84587088  0.99000297    -0.89690
H1130       H  0.65055931  0.72774513  0.99993545     0.18010
H1131       H  0.87869614  0.71004450  0.96815163     0.18000
N1132       N  0.81557568  0.59993556  0.97820899    -0.88710
H1133       H  0.66890313  0.85586615  0.97278686     0.35380
H1134       H  0.74507559  0.88187453  0.99182466     0.40470
H1135       H  0.78214108  0.56881974  0.99017565     0.40090
H1136       H  0.85668378  0.60828101  0.99469234     0.34980
C1137       C  0.79711030  0.73167517  0.55960618    -0.26750
C1138       C  0.77316372  0.79373251  0.57039009    -0.14820
C1139       C  0.70250299  0.79827858  0.56467971     0.35810
C1140       C  0.66163404  0.73980565  0.56227793    -0.26200
C1141       C  0.68683727  0.67692984  0.57081935    -0.15440
C1142       C  0.75691540  0.67368937  0.56305875     0.36890
N1143       N  0.78814414  0.61278026  0.55736492    -0.89690
H1144       H  0.85063970  0.72656351  0.55612702     0.18010
H1145       H  0.60862761  0.74412724  0.55688723     0.18000
N1146       N  0.67530073  0.85642314  0.55072028    -0.88710
H1147       H  0.83753774  0.61772833  0.54919472     0.35380
H1148       H  0.75856460  0.58595429  0.53986635     0.40470
H1149       H  0.71141933  0.89364965  0.54865376     0.40090
H1150       H  0.63111084  0.87256969  0.56130048     0.34980
C1151       C  0.72732359  0.56691579  0.67976472    -0.26750
C1152       C  0.79535133  0.57660838  0.67163587    -0.14820
C1153       C  0.80444365  0.55222815  0.63702588     0.35810
C1154       C  0.74815010  0.55157010  0.61267963    -0.26200
C1155       C  0.68598894  0.58210154  0.62015358    -0.15440
C1156       C  0.67365015  0.57616197  0.65593684     0.36890
N1157       N  0.60664658  0.57166517  0.66815794    -0.89690
H1158       H  0.71531336  0.54789485  0.70427384     0.18010
H1159       H  0.75344834  0.52826323  0.58813955     0.18000
N1160       N  0.87020483  0.53861289  0.62454798    -0.88710
H1161       H  0.60477283  0.54784546  0.69148423     0.35380
H1162       H  0.57758330  0.54438140  0.65049993     0.40470
H1163       H  0.90564824  0.54388912  0.64439769     0.40090
H1164       H  0.88230546  0.57308061  0.60627532     0.34980
C1165       C  0.92168881  0.78362529  0.63737364    -0.26750
C1166       C  0.86052473  0.78941197  0.61746861    -0.14820
C1167       C  0.81392615  0.74797785  0.63004290     0.35810
C1168       C  0.83036223  0.68657281  0.63517209    -0.26200
C1169       C  0.87457406  0.67831747  0.66229126    -0.15440
C1170       C  0.92701499  0.73000122  0.66233539     0.36890
N1171       N  0.97916510  0.73283612  0.68796229    -0.89690
H1172       H  0.96085527  0.82057243  0.63574769     0.18010
H1173       H  0.78330544  0.66282869  0.63283518     0.18000
N1174       N  0.77165788  0.77554163  0.65393701    -0.88710
H1175       H  0.01442814  0.76931954  0.68255850     0.35380
H1176       H  0.00305336  0.68828830  0.68854111     0.40470
H1177       H  0.75249489  0.74203269  0.67019397     0.40090
H1178       H  0.73440828  0.79281052  0.63895972     0.34980
C1179       C  0.54954837  0.72853588  0.67359900    -0.26750
C1180       C  0.60092588  0.78207793  0.67269800    -0.14820
C1181       C  0.61595590  0.78454782  0.63868435     0.35810
C1182       C  0.64257868  0.72524973  0.62891939    -0.26200
C1183       C  0.60021902  0.67614453  0.61940392    -0.15440
C1184       C  0.54584158  0.67748213  0.64482722     0.36890
N1185       N  0.48967199  0.63299150  0.64217958    -0.89690
H1186       H  0.51397926  0.72601476  0.69411579     0.18010
H1187       H  0.67871875  0.70174267  0.64415150     0.18000
N1188       N  0.56412545  0.81009037  0.61693596    -0.88710
H1189       H  0.48609051  0.60688814  0.66470806     0.35380
H1190       H  0.49563698  0.60022536  0.62157886     0.40470
H1191       H  0.54730008  0.77713098  0.59802125     0.40090
H1192       H  0.58315580  0.84892731  0.60403968     0.34980
C1193       C  0.76617381  0.89341577  0.68328653    -0.26750
C1194       C  0.69499319  0.87906604  0.67932118    -0.14820
C1195       C  0.67220983  0.90601316  0.64873255     0.35810
C1196       C  0.71548423  0.90678648  0.61941421    -0.26200
C1197       C  0.78547967  0.89154228  0.62058148    -0.15440
C1198       C  0.81061765  0.90109879  0.65474132     0.36890
N1199       N  0.88142990  0.91128619  0.66057358    -0.89690
H1200       H  0.78905702  0.90160734  0.70778201     0.18010
H1201       H  0.69628559  0.92814066  0.59745284     0.18000
N1202       N  0.60611020  0.93335326  0.64792878    -0.88710
H1203       H  0.89204234  0.91903426  0.68660832     0.35380
H1204       H  0.89644321  0.95347727  0.64807280     0.40470
H1205       H  0.56957569  0.90274043  0.65794998     0.40090
H1206       H  0.59192367  0.94587732  0.62316894     0.34980
C1207       C  0.73539998  0.66556872  0.72710054    -0.26750
C1208       C  0.80098908  0.68151635  0.71639696    -0.14820
C1209       C  0.81531488  0.74948031  0.72476097     0.35810
C1210       C  0.76125264  0.79355922  0.73165816    -0.26200
C1211       C  0.69417891  0.77822267  0.72184357    -0.15440
C1212       C  0.68130214  0.71026492  0.72572476     0.36890
N1213       N  0.61683559  0.68690324  0.73539136    -0.89690
H1214       H  0.72688411  0.61970982  0.73906176     0.18010
H1215       H  0.77149559  0.83946358  0.74473862     0.18000
N1216       N  0.88227744  0.77558392  0.72567624    -0.88710
H1217       H  0.59966236  0.65160089  0.71769300     0.35380
H1218       H  0.58357772  0.72560741  0.73646888     0.40470
H1219       H  0.91164137  0.75001017  0.74285563     0.40090
H1220       H  0.88329339  0.82473308  0.73367460     0.34980
C1221       C  0.05993446  0.69119873  0.90741646    -0.26750
C1222       C  0.07368012  0.70542510  0.87275610    -0.14820
C1223       C  0.05579847  0.77274512  0.86727332     0.35810
C1224       C  0.06849565  0.81872015  0.89417670    -0.26200
C1225       C  0.09560742  0.79895534  0.92536668    -0.15440
C1226       C  0.06140412  0.74094538  0.93276547     0.36890
N1227       N  0.01127238  0.74115388  0.95880374    -0.89690
H1228       H  0.03035396  0.64939652  0.91322811     0.18010
H1229       H  0.03597012  0.86039321  0.89498951     0.18000
N1230       N  0.00621537  0.79112409  0.84224367    -0.88710
H1231       H  0.98448098  0.69689336  0.95840801     0.35380
H1232       H  0.97875073  0.77909520  0.95459623     0.40470
H1233       H  0.99827955  0.75507587  0.82337694     0.40090
H1234       H  0.02202294  0.83409159  0.83064797     0.34980
C1235       C  0.13440427  0.75921675  0.81331602    -0.26750
C1236       C  0.14828830  0.69491768  0.82123516    -0.14820
C1237       C  0.20785738  0.67673722  0.80620656     0.35810
C1238       C  0.25852613  0.72535779  0.80275142    -0.26200
C1239       C  0.25294608  0.78539346  0.82044219    -0.15440
C1240       C  0.18468037  0.80752563  0.81790399     0.36890
N1241       N  0.16697787  0.87333174  0.80939033    -0.89690
H1242       H  0.08902774  0.76969245  0.79965263     0.18010
H1243       H  0.29831545  0.71998397  0.78499015     0.18000
N1244       N  0.21007192  0.61724120  0.78724263    -0.88710
H1245       H  0.11980469  0.87637138  0.79750415     0.35380
H1246       H  0.20322830  0.89513822  0.79431232     0.40470
H1247       H  0.16543024  0.59008394  0.78754463     0.40090
H1248       H  0.24980751  0.58976132  0.79611578     0.34980
C1249       C  0.23161266  0.89985944  0.86685946    -0.26750
C1250       C  0.29105837  0.86713994  0.87035932    -0.14820
C1251       C  0.31719928  0.88352973  0.90375542     0.35810
C1252       C  0.27065073  0.88995866  0.93097714    -0.26200
C1253       C  0.20053430  0.87821051  0.92519193    -0.15440
C1254       C  0.18301212  0.90016609  0.89258542     0.36890
N1255       N  0.12480520  0.93797455  0.88776359    -0.89690
H1256       H  0.22984635  0.93275754  0.84670334     0.18010
H1257       H  0.28814634  0.91135628  0.95498505     0.18000
N1258       N  0.38147487  0.91570047  0.90829672    -0.88710
H1259       H  0.09820341  0.92401746  0.86544828     0.35380
H1260       H  0.09606369  0.94330684  0.90977468     0.40470
H1261       H  0.40815256  0.91517147  0.88546790     0.40090
H1262       H  0.40890301  0.89284437  0.92749251     0.34980
C1263       C  0.18792334  0.56794706  0.92437122    -0.26750
C1264       C  0.25586900  0.57958859  0.91506820    -0.14820
C1265       C  0.26213323  0.56283903  0.88006458     0.35810
C1266       C  0.20916970  0.57564049  0.85707899    -0.26200
C1267       C  0.15181917  0.60718775  0.86857460    -0.15440
C1268       C  0.13484821  0.57865377  0.90014808     0.36890
N1269       N  0.06965415  0.54909274  0.90405588    -0.89690
H1270       H  0.17704406  0.54427350  0.94801754     0.18010
H1271       H  0.20379122  0.54367567  0.83504029     0.18000
N1272       N  0.31067677  0.51663220  0.86989657    -0.88710
H1273       H  0.06144121  0.53816736  0.92962460     0.35380
H1274       H  0.06666228  0.50630095  0.88899446     0.40470
H1275       H  0.34837932  0.51349285  0.88869159     0.40090
H1276       H  0.33015585  0.52799442  0.84605501     0.34980
C1277       C  0.26666893  0.78723119  0.97276971    -0.26750
C1278       C  0.19625548  0.78244038  0.96684412    -0.14820
C1279       C  0.17264708  0.72011884  0.97652006     0.35810
C1280       C  0.21409284  0.66580341  0.97295453    -0.26200
C1281       C  0.27812428  0.67295229  0.95992240    -0.15440
C1282       C  0.30750363  0.73213977  0.97194435     0.36890
N1283       N  0.36383293  0.73197480  0.99515673    -0.89690
H1284       H  0.28968312  0.83063518  0.98319551     0.18010
H1285       H  0.19826193  0.61956465  0.98139659     0.18000
N1286       N  0.10994972  0.71284512  0.99233677    -0.88710
H1287       H  0.39270259  0.77497921  0.99396176     0.35380
H1288       H  0.39221702  0.68990480  0.99273811     0.40470
H1289       H  0.10166486  0.75052955  0.00962411     0.40090
H1290       H  0.09637744  0.66597861  0.99946859     0.34980
C1291       C  0.38671994  0.76874007  0.89058086    -0.26750
C1292       C  0.35428316  0.75683482  0.85940442    -0.14820
C1293       C  0.36217430  0.68882832  0.84942482     0.35810
C1294       C  0.37030724  0.64212370  0.87555798    -0.26200
C1295       C  0.36114964  0.65835063  0.91043016    -0.15440
C1296       C  0.39003711  0.72097032  0.91589053     0.36890
N1297       N  0.43741912  0.73020786  0.94247705    -0.89690
H1298       H  0.42010907  0.81000620  0.89225447     0.18010
H1299       H  0.39737148  0.59856841  0.86927504     0.18000
N1300       N  0.37675040  0.66797432  0.81496690    -0.88710
H1301       H  0.45798096  0.77726422  0.94152316     0.35380
H1302       H  0.47251271  0.69343063  0.94019792     0.40470
H1303       H  0.42348710  0.64702869  0.81246394     0.40090
H1304       H  0.34506745  0.62849170  0.80896573     0.34980
C1305       C  0.75428590  0.05440510  0.85622689    -0.26750
C1306       C  0.69127863  0.08405719  0.86362471    -0.14820
C1307       C  0.67372158  0.07224874  0.89805759     0.35810
C1308       C  0.72511294  0.05685034  0.92193336    -0.26200
C1309       C  0.79178486  0.07510754  0.91646418    -0.15440
C1310       C  0.80719315  0.05483628  0.88201586     0.36890
N1311       N  0.87042570  0.02691460  0.87362010    -0.89690
H1312       H  0.76505598  0.03843216  0.83032945     0.18010
H1313       H  0.71302591  0.03596056  0.94601074     0.18000
N1314       N  0.60599323  0.06107714  0.90801015    -0.88710
H1315       H  0.89030932  0.05006914  0.85243456     0.35380
H1316       H  0.90379011  0.03060218  0.89451238     0.40470
H1317       H  0.57363995  0.05500174  0.88688204     0.40090
H1318       H  0.59117532  0.09444455  0.92689429     0.34980
C1319       C  0.73099041  0.29394263  0.81121938    -0.26750
C1320       C  0.78150394  0.28736967  0.83809278    -0.14820
C1321       C  0.78263498  0.22269411  0.84767832     0.35810
C1322       C  0.76876684  0.17434616  0.82357138    -0.26200
C1323       C  0.70240165  0.17290092  0.81460798    -0.15440
C1324       C  0.68817561  0.23598032  0.80042455     0.36890
N1325       N  0.62419889  0.24316955  0.78365023    -0.89690
H1326       H  0.71844210  0.34174388  0.80300244     0.18010
H1327       H  0.80193636  0.13397595  0.82111450     0.18000
N1328       N  0.77351555  0.20872401  0.88244108    -0.88710
H1329       H  0.61119293  0.29227916  0.78249993     0.35380
H1330       H  0.58586966  0.21698098  0.79524421     0.40470
H1331       H  0.72667537  0.19043547  0.88757200     0.40090
H1332       H  0.79718091  0.16677648  0.88320725     0.34980
C1333       C  0.87967621  0.30059307  0.91943257    -0.26750
C1334       C  0.87647288  0.29485627  0.88401468    -0.14820
C1335       C  0.90929208  0.23754976  0.87204467     0.35810
C1336       C  0.90925632  0.18073643  0.89354366    -0.26200
C1337       C  0.88196155  0.18347262  0.92710134    -0.15440
C1338       C  0.89082651  0.24882839  0.94059631     0.36890
N1339       N  0.92314161  0.26558731  0.97302138    -0.89690
H1340       H  0.89717703  0.34415104  0.93083639     0.18010
H1341       H  0.91759133  0.13470462  0.88223874     0.18000
N1342       N  0.92368015  0.23253049  0.83641479    -0.88710
H1343       H  0.89497552  0.30285408  0.98429184     0.35380
H1344       H  0.96718612  0.29229761  0.96959532     0.40470
H1345       H  0.97511222  0.23818102  0.83408190     0.40090
H1346       H  0.90744778  0.18744929  0.82603693     0.34980
C1347       C  0.56299684  0.18270335  0.88674826    -0.26750
C1348       C  0.60998019  0.18754035  0.85973413    -0.14820
C1349       C  0.62954537  0.25395111  0.85939299     0.35810
C1350       C  0.65418494  0.27855701  0.88998797    -0.26200
C1351       C  0.61236939  0.28358708  0.91738080    -0.15440
C1352       C  0.56207402  0.23243755  0.91427391     0.36890
N1353       N  0.50922725  0.22992445  0.93676528    -0.89690
H1354       H  0.52497973  0.14467929  0.88598569     0.18010
H1355       H  0.70462579  0.29496240  0.89210597     0.18000
N1356       N  0.58545654  0.29782405  0.84243006    -0.88710
H1357       H  0.50506803  0.18276509  0.94625502     0.35380
H1358       H  0.50859139  0.26819046  0.95450556     0.40470
H1359       H  0.54849444  0.31374043  0.85905281     0.40090
H1360       H  0.61300745  0.33875606  0.83528560     0.34980
C1361       C  0.74879585  0.28156083  0.98198800    -0.26750
C1362       C  0.68001563  0.27783706  0.97112148    -0.14820
C1363       C  0.65604139  0.21212910  0.97228727     0.35810
C1364       C  0.69949214  0.16182933  0.96323816    -0.26200
C1365       C  0.76975212  0.17265666  0.96063802    -0.15440
C1366       C  0.78698217  0.22313111  0.98312635     0.36890
N1367       N  0.83808602  0.20917315  0.00768252    -0.89690
H1368       H  0.77285056  0.32603820  0.98961696     0.18010
H1369       H  0.67799659  0.11532751  0.96810931     0.18000
N1370       N  0.59055297  0.19434963  0.98373227    -0.88710
H1371       H  0.85307863  0.24774973  0.02334394     0.35380
H1372       H  0.82240002  0.16947559  0.02152856     0.40470
H1373       H  0.56712161  0.23162290  0.99703822     0.40090
H1374       H  0.58990042  0.15344966  0.99879431     0.34980
C1375       C  0.75002524  0.40119725  0.94176268    -0.26750
C1376       C  0.68443220  0.38539316  0.93174929    -0.14820
C1377       C  0.66827084  0.40947840  0.89869331     0.35810
C1378       C  0.71918853  0.40661210  0.87289120    -0.26200
C1379       C  0.78639037  0.39070349  0.88196537    -0.15440
C1380       C  0.80040355  0.40855126  0.91707535     0.36890
N1381       N  0.85903084  0.44641247  0.92696319    -0.89690
H1382       H  0.75989661  0.41628622  0.96802530     0.18010
H1383       H  0.70502151  0.41105775  0.84639723     0.18000
N1384       N  0.59969476  0.42337345  0.89014782    -0.88710
H1385       H  0.87296903  0.43841482  0.95241352     0.35380
H1386       H  0.89924678  0.43594851  0.91102317     0.40470
H1387       H  0.56558073  0.38920705  0.89918318     0.40090
H1388       H  0.59294261  0.42725932  0.86379112     0.34980
C1389       C  0.15414931  0.70220718  0.71966446    -0.26750
C1390       C  0.18036378  0.63928489  0.71150838    -0.14820
C1391       C  0.25297593  0.64170503  0.71982338     0.35810
C1392       C  0.29076932  0.70196991  0.72122957    -0.26200
C1393       C  0.26381292  0.76191824  0.71114160    -0.15440
C1394       C  0.19466850  0.76162224  0.72037070     0.36890
N1395       N  0.17871613  0.80499138  0.74734710    -0.89690
H1396       H  0.10075036  0.70621746  0.72361457     0.18010
H1397       H  0.34398027  0.70049153  0.72747329     0.18000
N1398       N  0.28688890  0.59163621  0.73777199    -0.88710
H1399       H  0.12763947  0.81559024  0.74725243     0.35380
H1400       H  0.21147238  0.84518657  0.74788441     0.40470
H1401       H  0.25576681  0.55178194  0.74299188     0.40090
H1402       H  0.33347536  0.58095614  0.72714367     0.34980
C1403       C  0.04383427  0.64276720  0.63230259    -0.26750
C1404       C  0.09904324  0.63975375  0.65663958    -0.14820
C1405       C  0.14146284  0.68663848  0.64993650     0.35810
C1406       C  0.12578905  0.74715950  0.64082957    -0.26200
C1407       C  0.08363923  0.75788028  0.61339428    -0.15440
C1408       C  0.03670503  0.70029506  0.60966522     0.36890
N1409       N  0.98221377  0.69764111  0.58531399    -0.89690
H1410       H  0.00835079  0.60238156  0.63005099     0.18010
H1411       H  0.16902209  0.77468271  0.64608918     0.18000
N1412       N  0.20529652  0.66649106  0.64679172    -0.88710
H1413       H  0.99112329  0.66091364  0.56700448     0.35380
H1414       H  0.97713491  0.74191009  0.57333667     0.40470
H1415       H  0.21096014  0.65817928  0.62099861     0.40090
H1416       H  0.23117785  0.69751974  0.66273475     0.34980
C1417       C  0.13871266  0.88104392  0.64467956    -0.26750
C1418       C  0.15981336  0.86699658  0.61104460    -0.14820
C1419       C  0.22658075  0.89279958  0.60765310     0.35810
C1420       C  0.27432687  0.88813669  0.63553853    -0.26200
C1421       C  0.25614861  0.86394866  0.66773318    -0.15440
C1422       C  0.18568713  0.88018996  0.67311018     0.36890
N1423       N  0.16030491  0.90134395  0.70527507    -0.89690
H1424       H  0.08537231  0.88021743  0.64982584     0.18010
H1425       H  0.32528285  0.90334316  0.63159344     0.18000
N1426       N  0.23616812  0.94774883  0.58603070    -0.88710
H1427       H  0.14748413  0.95015684  0.70444779     0.35380
H1428       H  0.11320307  0.87886056  0.70749707     0.40470
H1429       H  0.20073403  0.94742100  0.56607823     0.40090
H1430       H  0.28458273  0.94753305  0.57606093     0.34980
C1431       C  0.35049962  0.71420416  0.66257627    -0.26750
C1432       C  0.36562719  0.77912089  0.66759972    -0.14820
C1433       C  0.41157954  0.79264050  0.63805534     0.35810
C1434       C  0.41463885  0.74046797  0.60824585    -0.26200
C1435       C  0.36546989  0.68348605  0.60746508    -0.15440
C1436       C  0.32256230  0.70522388  0.63039176     0.36890
N1437       N  0.28232589  0.75958362  0.61986178    -0.89690
H1438       H  0.38693126  0.67959587  0.67172434     0.18010
H1439       H  0.44402932  0.74912882  0.58583741     0.18000
N1440       N  0.44403521  0.85499613  0.63506450    -0.88710
H1441       H  0.23751289  0.74709985  0.60996693     0.35380
H1442       H  0.30676978  0.79135614  0.60366710     0.40470
H1443       H  0.43184455  0.88531584  0.65586704     0.40090
H1444       H  0.42658078  0.87618466  0.61265366     0.34980
C1445       C  0.30646959  0.56499750  0.64312451    -0.26750
C1446       C  0.28984302  0.57423361  0.60816125    -0.14820
C1447       C  0.23092734  0.53758292  0.59926871     0.35810
C1448       C  0.17609527  0.53448280  0.62332174    -0.26200
C1449       C  0.18670722  0.54531258  0.65933514    -0.15440
C1450       C  0.25709744  0.54135361  0.66663555     0.36890
N1451       N  0.27856780  0.50038569  0.69337366    -0.89690
H1452       H  0.35789816  0.57232793  0.65175256     0.18010
H1453       H  0.12572024  0.52502596  0.61371611     0.18000
N1454       N  0.23308881  0.49230264  0.57052292    -0.88710
H1455       H  0.32419801  0.47743322  0.68960066     0.35380
H1456       H  0.23952562  0.47305452  0.70377128     0.40470
H1457       H  0.25554240  0.51332365  0.54953129     0.40090
H1458       H  0.18457649  0.47917684  0.56239101     0.34980
C1459       C  0.28342501  0.73049910  0.55119184    -0.26750
C1460       C  0.26961310  0.66534033  0.56046975    -0.14820
C1461       C  0.19852205  0.65089798  0.55664470     0.35810
C1462       C  0.15157802  0.70029913  0.56039634    -0.26200
C1463       C  0.16792238  0.76649614  0.56417188    -0.15440
C1464       C  0.23360642  0.78065739  0.55179886     0.36890
N1465       N  0.25374906  0.84561004  0.54472693    -0.89690
H1466       H  0.33508641  0.74676418  0.55168759     0.18010
H1467       H  0.09978963  0.68624471  0.55801005     0.18000
N1468       N  0.17016880  0.58913778  0.54616851    -0.88710
H1469       H  0.30446550  0.84889452  0.53837536     0.35380
H1470       H  0.22438238  0.86174053  0.52469251     0.40470
H1471       H  0.14563070  0.59009524  0.52277820     0.40090
H1472       H  0.13133640  0.57810771  0.56287411     0.34980
C1473       C  0.24349269  0.39463122  0.85924899    -0.26750
C1474       C  0.18186724  0.37086558  0.87083742    -0.14820
C1475       C  0.17808032  0.38638528  0.90664176     0.35810
C1476       C  0.23775228  0.39659748  0.92636037    -0.26200
C1477       C  0.29785384  0.37159904  0.91367179    -0.15440
C1478       C  0.30351457  0.38129844  0.87787066     0.36890
N1479       N  0.36540725  0.40081541  0.86269871    -0.89690
H1480       H  0.24490266  0.41985331  0.83529357     0.18010
H1481       H  0.23480466  0.41208706  0.95287664     0.18000
N1482       N  0.11756771  0.40396113  0.92245774    -0.88710
H1483       H  0.37909551  0.36731621  0.84360704     0.35380
H1484       H  0.40277727  0.41129703  0.88114758     0.40470
H1485       H  0.12343680  0.45160059  0.93157607     0.40090
H1486       H  0.11517888  0.37745321  0.94465368     0.34980
C1487       C  0.23478790  0.17052706  0.94665570    -0.26750
C1488       C  0.16950412  0.17617734  0.95473907    -0.14820
C1489       C  0.16169392  0.24092277  0.97161697     0.35810
C1490       C  0.21889197  0.28829576  0.97258569    -0.26200
C1491       C  0.27531664  0.27729040  0.95049700    -0.15440
C1492       C  0.25830076  0.22373121  0.92997927     0.36890
N1493       N  0.25888611  0.22655239  0.89391564    -0.89690
H1494       H  0.26260679  0.15871498  0.96962796     0.18010
H1495       H  0.21565373  0.33341023  0.98715621     0.18000
N1496       N  0.10081141  0.26101161  0.98610102    -0.88710
H1497       H  0.24097260  0.18226384  0.88458844     0.35380
H1498       H  0.22511336  0.26159387  0.88709943     0.40470
H1499       H  0.06701367  0.22237496  0.98536252     0.40090
H1500       H  0.08118483  0.30003512  0.97311466     0.34980
C1501       C  0.10911637  0.19938112  0.86422190    -0.26750
C1502       C  0.10109724  0.26658096  0.87100351    -0.14820
C1503       C  0.05701678  0.27581711  0.89919997     0.35810
C1504       C  0.04658883  0.22125556  0.92158498    -0.26200
C1505       C  0.06768132  0.15713423  0.91399800    -0.15440
C1506       C  0.06967969  0.15268227  0.87875016     0.36890
N1507       N  0.02749506  0.10935449  0.85793290    -0.89690
H1508       H  0.15418367  0.17969940  0.85637492     0.18010
H1509       H  0.01251733  0.22288606  0.94125199     0.18000
N1510       N  0.01317417  0.33033243  0.90189359    -0.88710
H1511       H  0.05494030  0.09133899  0.83731836     0.35380
H1512       H  0.99406865  0.13713262  0.84457652     0.40470
H1513       H  0.02499405  0.36746426  0.88538551     0.40090
H1514       H  0.01261422  0.34874249  0.92691784     0.34980
C1515       C  0.41225108  0.27668379  0.88534891    -0.26750
C1516       C  0.38379856  0.27007829  0.91809826    -0.14820
C1517       C  0.38608672  0.20305339  0.92872803     0.35810
C1518       C  0.38598085  0.15176633  0.90356064    -0.26200
C1519       C  0.37844499  0.16460155  0.86823677    -0.15440
C1520       C  0.41318790  0.22278173  0.86122615     0.36890
N1521       N  0.45455078  0.22369072  0.83175829    -0.89690
H1522       H  0.44406628  0.31821683  0.88121466     0.18010
H1523       H  0.39900749  0.10426649  0.91200675     0.18000
N1524       N  0.38157012  0.18757841  0.96446477    -0.88710
H1525       H  0.47232218  0.27045755  0.82683873     0.35380
H1526       H  0.49189681  0.18901456  0.83278032     0.40470
H1527       H  0.41885999  0.21210171  0.97889612     0.40090
H1528       H  0.38804890  0.13753052  0.96788999     0.34980
C1529       C  0.21912257  0.16912120  0.80538514    -0.26750
C1530       C  0.28336383  0.18020552  0.82087319    -0.14820
C1531       C  0.30195962  0.24590029  0.81459516     0.35810
C1532       C  0.25253115  0.29447197  0.81535153    -0.26200
C1533       C  0.18366933  0.28097269  0.81975902    -0.15440
C1534       C  0.16883177  0.21928249  0.80335397     0.36890
N1535       N  0.10209046  0.20254364  0.79107432    -0.89690
H1536       H  0.20774113  0.12339870  0.79458663     0.18010
H1537       H  0.26738616  0.34092764  0.80613719     0.18000
N1538       N  0.36166387  0.26008214  0.79625869    -0.88710
H1539       H  0.09689255  0.15190621  0.78741565     0.35380
H1540       H  0.06508905  0.21652255  0.80770549     0.40470
H1541       H  0.37160087  0.22216244  0.77895730     0.40090
H1542       H  0.36107270  0.30465620  0.78388280     0.34980
C1543       C  0.28845905  0.05178784  0.89573999    -0.26750
C1544       C  0.27765522  0.07672387  0.86203921    -0.14820
C1545       C  0.21014697  0.06122852  0.85235449     0.35810
C1546       C  0.15982741  0.06074045  0.87771724    -0.26200
C1547       C  0.17012739  0.07270318  0.91311542    -0.15440
C1548       C  0.23628696  0.04969521  0.92126491     0.36890
N1549       N  0.25289197  0.02822821  0.95498786    -0.89690
H1550       H  0.33549659  0.02972380  0.90172461     0.18010
H1551       H  0.11247073  0.04095712  0.87037883     0.18000
N1552       N  0.19452627  0.02542383  0.82105951    -0.88710
H1553       H  0.29429318  0.05501999  0.96461452     0.35380
H1554       H  0.21281213  0.03570280  0.97145659     0.40470
H1555       H  0.23493243  0.02472056  0.80433804     0.40090
H1556       H  0.15060472  0.04224432  0.80949008     0.34980
C1557       C  0.05411880  0.27784099  0.63871224    -0.26750
C1558       C  0.08152587  0.26581643  0.67158300    -0.14820
C1559       C  0.07002297  0.19844380  0.67771702     0.35810
C1560       C  0.08338538  0.15226888  0.65148476    -0.26200
C1561       C  0.08449595  0.16760567  0.61627160    -0.15440
C1562       C  0.04743445  0.22713173  0.61278634     0.36890
N1563       N  0.98289667  0.22456181  0.59574384    -0.89690
H1564       H  0.01880742  0.31675418  0.63737394     0.18010
H1565       H  0.06965274  0.10451704  0.65813774     0.18000
N1566       N  0.02274311  0.17829571  0.70324961    -0.88710
H1567       H  0.97123422  0.27000378  0.58566356     0.35380
H1568       H  0.98064218  0.18866124  0.57651664     0.40470
H1569       H  0.01425142  0.21517396  0.72147577     0.40090
H1570       H  0.03862566  0.13586430  0.71517685     0.34980
C1571       C  0.29776537  0.23437115  0.72681274    -0.26750
C1572       C  0.27977883  0.16684925  0.71903293    -0.14820
C1573       C  0.21096340  0.15441564  0.72536808     0.35810
C1574       C  0.16608903  0.20698717  0.72559575    -0.26200
C1575       C  0.18156653  0.27134366  0.71686780    -0.15440
C1576       C  0.24863158  0.28534722  0.72799081     0.36890
N1577       N  0.26451421  0.34562877  0.74622087    -0.89690
H1578       H  0.35008560  0.24934649  0.72632948     0.18010
H1579       H  0.11815962  0.19772202  0.73432946     0.18000
N1580       N  0.18572488  0.09334610  0.73750063    -0.88710
H1581       H  0.31123749  0.36480930  0.73934602     0.35380
H1582       H  0.22677715  0.38003239  0.74292082     0.40470
H1583       H  0.22281819  0.05837497  0.73964891     0.40090
H1584       H  0.14514739  0.07670504  0.72227624     0.34980
C1585       C  0.25842534  0.08604034  0.60335452    -0.26750
C1586       C  0.18742015  0.08702653  0.60886087    -0.14820
C1587       C  0.17255187  0.05121967  0.63867187     0.35810
C1588       C  0.21925189  0.05224509  0.66701310    -0.26200
C1589       C  0.28534047  0.07609614  0.66457423    -0.15440
C1590       C  0.30557921  0.07215525  0.62997937     0.36890
N1591       N  0.37344219  0.05569439  0.62237427    -0.89690
H1592       H  0.27939073  0.08677447  0.57863822     0.18010
H1593       H  0.20961844  0.02338247  0.68836288     0.18000
N1594       N  0.11539319  0.00772992  0.63896571    -0.88710
H1595       H  0.38037258  0.05296679  0.59595448     0.35380
H1596       H  0.38203804  0.00898624  0.63157697     0.40470
H1597       H  0.07896255  0.01896256  0.62075259     0.40090
H1598       H  0.09367281  0.00712603  0.66309678     0.34980
C1599       C  0.39041511  0.25293650  0.61888890    -0.26750
C1600       C  0.32534219  0.27530608  0.60871193    -0.14820
C1601       C  0.27445025  0.24720812  0.62745241     0.35810
C1602       C  0.28378054  0.21049691  0.65522246    -0.26200
C1603       C  0.34316419  0.18334574  0.66589002    -0.15440
C1604       C  0.39796342  0.20190943  0.64471762     0.36890
N1605       N  0.45735048  0.16504152  0.64550068    -0.89690
H1606       H  0.43363843  0.27244393  0.60626711     0.18010
H1607       H  0.23685595  0.19293574  0.66524478     0.18000
N1608       N  0.20768321  0.25336765  0.61749062    -0.88710
H1609       H  0.45942936  0.13988072  0.62210797     0.35380
H1610       H  0.45537482  0.12973799  0.66414781     0.40470
H1611       H  0.18111495  0.26611769  0.63826790     0.40090
H1612       H  0.19538453  0.20586539  0.61500702     0.34980
C1613       C  0.24287944  0.37169388  0.66852425    -0.26750
C1614       C  0.17127858  0.36375458  0.66883584    -0.14820
C1615       C  0.14361718  0.38721755  0.63761662     0.35810
C1616       C  0.18201637  0.38413651  0.60697870    -0.26200
C1617       C  0.25372674  0.37532764  0.60685286    -0.15440
C1618       C  0.28143846  0.38802933  0.63970416     0.36890
N1619       N  0.35180657  0.40340585  0.64457325    -0.89690
H1620       H  0.27345299  0.36900313  0.68996148     0.18010
H1621       H  0.15326910  0.39157515  0.58431895     0.18000
N1622       N  0.08043121  0.42003493  0.63656182    -0.88710
H1623       H  0.37598885  0.36413440  0.65575926     0.35380
H1624       H  0.37477965  0.41431257  0.62163889     0.40470
H1625       H  0.05292870  0.41055072  0.65831409     0.40090
H1626       H  0.05260186  0.40509729  0.61481419     0.34980
C1627       C  0.22479159  0.16664445  0.54485423    -0.26750
C1628       C  0.16174431  0.17697998  0.55989424    -0.14820
C1629       C  0.13966322  0.24230250  0.55418087     0.35810
C1630       C  0.18716996  0.29309587  0.54922345    -0.26200
C1631       C  0.25516761  0.28269266  0.55522996    -0.15440
C1632       C  0.27449066  0.21751631  0.54611547     0.36890
N1633       N  0.34296350  0.20142012  0.53939063    -0.89690
H1634       H  0.23683786  0.11866418  0.53477899     0.18010
H1635       H  0.17136447  0.34035507  0.54099419     0.18000
N1636       N  0.07044098  0.25750353  0.55077046    -0.88710
H1637       H  0.35947258  0.17021081  0.55842683     0.35380
H1638       H  0.37352960  0.24330445  0.54085067     0.40470
H1639       H  0.04461114  0.22167087  0.53629890     0.40090
H1640       H  0.06189396  0.30462405  0.54198130     0.34980
loop_ 
_geom_bond_atom_site_label_1 
_geom_bond_atom_site_label_2 
_geom_bond_distance 
_geom_bond_site_symmetry_2 
_ccdc_geom_bond_type 
C1           C36   1.585       .  S
C1          C780   1.627       .  S
C1          C797   1.633       .  S
C1          C811   1.588       .  S
C2           C69   1.619       .  S
C2          C752   1.634       .  S
C2          C769   1.630       .  S
C2          C783   1.623       .  S
C3           C95   1.548       .  S
C3          C741   1.681       .  S
C3          C766   1.648       .  S
C3          C808   1.627       .  S
C4          C128   1.620       .  S
C4          C738   1.651       .  S
C4          C755   1.647       .  S
C4          C794   1.653       .  S
C5           C50   1.602       .  S
C5          C699   1.627       .  S
C5          C710   1.646       .  S
C5          C724   1.669       .  S
C6          C114   1.637       .  S
C6          C668   1.618       .  S
C6          C685   1.609       .  S
C6          C727   1.688       .  S
C7          C131   1.580       .  S
C7          C654   1.630       .  S
C7          C682   1.610       .  S
C7          C713   1.647       .  S
C8           C17   1.602       .  S
C8          C657   1.582       .  S
C8          C671   1.609       .  S
C8          C696   1.622       .  S
O9           C17   1.280       .  A
O9         Co849   2.090       .  S
O10          C18   1.273       .  A
O10        Co850   2.030       .  S
O11          C19   1.289       .  A
O11        Co851   2.029       .  S
O12          C20   1.272       .  A
O12        Co852   2.012       .  S
O13          C19   1.289       .  A
O13        Co850   2.091       .  S
O14          C20   1.270       .  A
O14        Co849   2.051       .  S
O15          C18   1.287       .  A
O15        Co852   2.031       .  S
O16          C17   1.273       .  A
O16        Co851   2.023       .  S
C18          C83   1.574       .  S
C19          C75   1.597       .  S
C20          C71   1.592       .  S
O21          C34   1.269       .  A
O21         Co29   2.008       .  S
O22          C35   1.259       .  A
O22         Co30   2.036       .  S
O23          C36   1.291       .  A
O23         Co31   2.071       .  S
O24          C37   1.259       .  A
O24         Co32   2.030       .  S
O25          C37   1.288       .  A
O25         Co30   2.116       .  S
O26          C36   1.268       .  A
O26         Co29   2.021       .  S
O27          C34   1.284       .  A
O27         Co32   2.041       .  S
O28          C35   1.265       .  A
O28         Co31   2.014       .  S
Co29        O829   2.090   1_554  S
Co29        O834   2.051   1_554  S
Co29         O33   2.187       .  S
Co30        O830   2.030   1_554  S
Co30        O833   2.091   1_554  S
Co30         O33   2.257       .  S
Co31        O831   2.029   1_554  S
Co31        O836   2.023   1_554  S
Co31         O33   2.042       .  S
Co32        O832   2.012   1_554  S
Co32        O835   2.031   1_554  S
Co32         O33   2.065       .  S
C34         C118   1.552       .  S
C35          C38   1.564       .  S
C37          C81   1.612       .  S
C38         C615   1.650       .  S
C38         C626   1.650       .  S
C38         C640   1.639       .  S
C39          C98   1.581       .  S
C39         C587   1.673       .  S
C39         C598   1.659       .  S
C39         C643   1.605       .  S
C40         C130   1.569       .  S
C40         C570   1.707       .  S
C40         C584   1.632       .  S
C40         C629   1.660       .  S
C41          C68   1.571       .  S
C41         C573   1.673       .  S
C41         C601   1.667       .  S
C41         C612   1.681       .  S
O42          C50   1.306       .  A
O42         Co62   2.133       .  S
O43          C51   1.262       .  A
O43         Co63   2.036       .  S
O44          C52   1.264       .  A
O44         Co64   2.005       .  S
O45          C53   1.287       .  A
O45         Co65   1.962   1_545  S
O46          C52   1.271       .  A
O46         Co63   2.043       .  S
O47          C53   1.301       .  A
O47         Co62   2.126       .  S
O48          C51   1.298       .  A
O48         Co65   2.137       .  S
O49          C50   1.263       .  A
O49         Co64   1.991   1_545  S
C51          C85   1.651       .  S
C52          C76   1.568       .  S
C53          C73   1.590       .  S
O54          C67   1.287       .  A
O54         Co62   2.005       .  S
O55          C68   1.274       .  A
O55         Co63   2.035       .  S
O56          C69   1.268       .  A
O56         Co64   2.031   1_545  S
O57          C70   1.301       .  A
O57         Co65   2.114       .  S
O58          C70   1.279       .  A
O58         Co63   2.023       .  S
O59          C69   1.274       .  A
O59         Co62   2.088       .  S
O60          C67   1.326       .  A
O60         Co65   2.187   1_545  S
O61          C68   1.271       .  A
O61         Co64   2.032       .  S
Co62         O66   2.171   1_545  S
Co63         O66   2.183       .  S
Co64         O66   2.163       .  S
Co65         O66   2.131       .  S
C67         C116   1.648       .  S
C70          C79   1.602       .  S
C71         C531   1.614       .  S
C71         C542   1.603       .  S
C71         C556   1.610       .  S
C72         C145   1.571       .  S
C72         C500   1.640       .  S
C72         C514   1.613       .  S
C72         C559   1.625       .  S
C73         C486   1.629       .  S
C73         C503   1.623       .  S
C73         C528   1.656       .  S
C74         C113   1.533       .  S
C74         C489   1.648       .  S
C74         C517   1.655       .  S
C74         C545   1.617       .  S
C75         C444   1.623       .  S
C75         C461   1.574       .  S
C75         C475   1.643       .  S
C76         C419   1.601       .  S
C76         C430   1.623       .  S
C76         C472   1.613       .  S
C77         C129   1.605       .  S
C77         C402   1.633       .  S
C77         C416   1.566       .  S
C77         C447   1.615       .  S
C78         C112   1.591       .  S
C78         C405   1.613       .  S
C78         C433   1.614       .  S
C78         C458   1.608       .  S
C79         C360   1.671       .  S
C79         C374   1.664       .  S
C79         C391   1.623       .  S
C80         C146   1.596       .  S
C80         C332   1.671       .  S
C80         C349   1.614       .  S
C80         C388   1.643       .  S
C81         C321   1.671       .  S
C81         C335   1.661       .  S
C81         C363   1.625       .  S
C82          C96   1.589       .  S
C82         C318   1.647       .  S
C82         C346   1.609       .  S
C82         C377   1.648       .  S
C83         C279   1.674       .  S
C83         C293   1.633       .  S
C83         C304   1.641       .  S
C84         C148   1.620       .  S
C84         C248   1.635       .  S
C84         C265   1.576       .  S
C84         C290   1.606       .  S
C85         C234   1.639       .  S
C85         C251   1.679       .  S
C85         C276   1.687       .  S
C86         C115   1.591       .  S
C86         C237   1.645       .  S
C86         C262   1.592       .  S
C86         C307   1.599       .  S
O87          C95   1.293       .  A
O87        Co107   2.091   1_545  S
O88          C96   1.259       .  A
O88        Co108   2.004       .  S
O89          C97   1.281       .  A
O89        Co109   2.072       .  S
O90          C98   1.275       .  A
O90        Co110   1.932   1_455  S
O91          C97   1.275       .  A
O91        Co108   2.054   1_545  S
O92          C98   1.310       .  A
O92        Co107   2.147       .  S
O93          C96   1.272       .  A
O93        Co110   2.093       .  S
O94          C95   1.249       .  A
O94        Co109   1.959   1_455  S
C97         C117   1.604       .  S
O99         C112   1.278       .  A
O99        Co927   1.960       .  S
O100        C113   1.256       .  A
O100       Co928   1.976   1_545  S
O101        C114   1.282       .  A
O101       Co929   2.093   1_455  S
O102        C115   1.301       .  A
O102       Co930   2.115       .  S
O103        C115   1.263       .  A
O103       Co928   2.000       .  S
O104        C114   1.277       .  A
O104       Co927   2.080   1_545  S
O105        C112   1.308       .  A
O105       Co930   2.142   1_455  S
O106        C113   1.266       .  A
O106       Co929   2.002       .  S
Co107       O919   1.960   1_554  S
Co107       O924   2.080   1_564  S
Co107       O111   2.103   1_455  S
Co108       O920   1.976   1_564  S
Co108       O923   2.000   1_554  S
Co108       O111   2.124       .  S
Co109       O921   2.093   1_654  S
Co109       O926   2.002   1_554  S
Co109       O111   2.097   1_545  S
Co110       O922   2.115   1_554  S
Co110       O925   2.142   1_654  S
Co110       O111   2.079       .  S
C116        C192   1.691       .  S
C116        C209   1.662       .  S
C116        C220   1.625       .  S
C117        C164   1.609       .  S
C117        C181   1.573       .  S
C117        C223   1.636       .  S
C118        C153   1.638       .  S
C118        C167   1.633       .  S
C118        C195   1.667       .  S
C119        C147   1.560       .  S
C119        C150   1.594       .  S
C119        C178   1.594       .  S
C119        C206   1.624       .  S
O120        C128   1.277       .  A
O120       Co140   2.075   1_455  S
O121        C129   1.288       .  A
O121       Co141   2.109   1_455  S
O122        C130   1.277       .  A
O122       Co142   1.943   1_455  S
O123        C131   1.267       .  A
O123       Co143   2.014   1_455  S
O124        C130   1.309       .  A
O124       Co141   2.139   1_455  S
O125        C131   1.277       .  A
O125       Co140   2.049   1_455  S
O126        C129   1.254       .  A
O126       Co143   1.967   1_455  S
O127        C128   1.278       .  A
O127       Co142   2.067   1_455  S
O132        C145   1.259       .  A
O132       Co140   2.012       .  S
O133        C146   1.275       .  A
O133       Co141   1.953       .  S
O134        C147   1.284       .  A
O134       Co142   2.095       .  S
O135        C148   1.277       .  A
O135       Co143   2.056       .  S
O136        C148   1.273       .  A
O136       Co141   2.063       .  S
O137        C147   1.248       .  A
O137       Co140   1.933       .  S
O138        C145   1.269       .  A
O138       Co143   2.037       .  S
O139        C146   1.312       .  A
O139       Co142   2.160       .  S
Co140       O144   2.131       .  S
Co141       O144   2.129       .  S
Co142       O144   2.125       .  S
Co143       O144   2.129       .  S
C149        C150   1.406       .  A
C149        C154   1.423       .  A
C149        H156   1.064       .  S
C150        C151   1.411       .  A
C151        C152   1.429       .  A
C151        N158   1.438       .  S
C152        C153   1.423       .  A
C152        H157   1.063       .  S
C153        C154   1.423       .  A
C154        N155   1.418       .  S
N155        H159   1.045       .  S
N155        H160   1.046       .  S
N158        H161   1.041       .  S
N158        H162   1.042       .  S
C163        C164   1.434       .  A
C163        C168   1.408       .  A
C163        H170   1.078       .  S
C164        C165   1.408       .  A
C165        C166   1.435       .  A
C165        N172   1.430       .  S
C166        C167   1.403       .  A
C166        H171   1.044       .  S
C167        C168   1.406       .  A
C168        N169   1.433       .  S
N169        H173   1.038       .  S
N169        H174   1.045       .  S
N172        H175   1.042       .  S
N172        H176   1.037       .  S
C177        C178   1.436       .  A
C177        C182   1.477       .  A
C177        H184   1.059       .  S
C178        C179   1.387       .  A
C179        C180   1.335       .  A
C179        N186   1.386       .  S
C180        C181   1.370       .  A
C180        H185   1.072       .  S
C181        C182   1.390       .  A
C182        N183   1.423       .  S
N183        H187   1.039       .  S
N183        H188   1.034       .  S
N186        H189   1.008       .  S
N186        H190   1.008       .  S
C191        C192   1.443       .  A
C191        C196   1.410       .  A
C191        H198   1.056       .  S
C192        C193   1.442       .  A
C193        C194   1.462       .  A
C193        N200   1.441       .  S
C194        C195   1.438       .  A
C194        H199   1.071       .  S
C195        C196   1.399       .  A
C196        N197   1.442       .  S
N197        H201   1.036       .  S
N197        H202   1.046       .  S
N200        H203   1.043       .  S
N200        H204   1.045       .  S
C205        C206   1.410       .  A
C205        C210   1.429       .  A
C205        H212   1.084       .  S
C206        C207   1.406       .  A
C207        C208   1.420       .  A
C207        N214   1.435       .  S
C208        C209   1.431       .  A
C208        H213   1.052       .  S
C209        C210   1.454       .  A
C210        N211   1.414       .  S
N211        H215   1.047       .  S
N211        H216   1.039       .  S
N214        H217   1.044       .  S
N214        H218   1.044       .  S
C219        C220   1.387       .  A
C219        C224   1.433       .  A
C219        H226   1.083       .  S
C220        C221   1.411       .  A
C221        C222   1.442       .  A
C221        N228   1.436       .  S
C222        C223   1.449       .  A
C222        H227   1.078       .  S
C223        C224   1.432       .  A
C224        N225   1.425       .  S
N225        H229   1.040       .  S
N225        H230   1.045       .  S
N228        H231   1.043       .  S
N228        H232   1.045       .  S
C233        C234   1.422       .  A
C233        C238   1.425       .  A
C233        H240   1.074       .  S
C234        C235   1.422       .  A
C235        C236   1.436       .  A
C235        N242   1.424       .  S
C236        C237   1.414       .  A
C236        H241   1.065       .  S
C237        C238   1.434       .  A
C238        N239   1.436       .  S
N239        H243   1.041       .  S
N239        H244   1.045       .  S
N242        H245   1.045       .  S
N242        H246   1.046       .  S
C247        C248   1.407       .  A
C247        C252   1.439       .  A
C247        H254   1.076       .  S
C248        C249   1.436       .  A
C249        C250   1.433       .  A
C249        N256   1.428       .  S
C250        C251   1.425       .  A
C250        H255   1.061       .  S
C251        C252   1.454       .  A
C252        N253   1.424       .  S
N253        H257   1.046       .  S
N253        H258   1.034       .  S
N256        H259   1.042       .  S
N256        H260   1.040       .  S
C261        C262   1.404       .  A
C261        C266   1.439       .  A
C261        H268   1.055       .  S
C262        C263   1.415       .  A
C263        C264   1.332       .  A
C263        N270   1.385       .  S
C264        C265   1.352       .  A
C264        H269   1.080       .  S
C265        C266   1.397       .  A
C266        N267   1.379       .  S
N267        H271   1.028       .  S
N267        H272   1.037       .  S
N270        H273   1.001       .  S
N270        H274   1.006       .  S
C275        C276   1.447       .  A
C275        C280   1.455       .  A
C275        H282   1.063       .  S
C276        C277   1.404       .  A
C277        C278   1.436       .  A
C277        N284   1.412       .  S
C278        C279   1.402       .  A
C278        H283   1.076       .  S
C279        C280   1.447       .  A
C280        N281   1.443       .  S
N281        H285   1.040       .  S
N281        H286   1.047       .  S
N284        H287   1.042       .  S
N284        H288   1.035       .  S
C289        C290   1.409       .  A
C289        C294   1.426       .  A
C289        H296   1.077       .  S
C290        C291   1.432       .  A
C291        C292   1.414       .  A
C291        N298   1.436       .  S
C292        C293   1.393       .  A
C292        H297   1.058       .  S
C293        C294   1.444       .  A
C294        N295   1.428       .  S
N295        H299   1.045       .  S
N295        H300   1.045       .  S
N298        H301   1.034       .  S
N298        H302   1.041       .  S
C303        C304   1.401       .  A
C303        C308   1.420       .  A
C303        H310   1.051       .  S
C304        C305   1.442       .  A
C305        C306   1.415       .  A
C305        N312   1.432       .  S
C306        C307   1.415       .  A
C306        H311   1.073       .  S
C307        C308   1.398       .  A
C308        N309   1.411       .  S
N309        H313   1.039       .  S
N309        H314   1.044       .  S
N312        H315   1.039       .  S
N312        H316   1.044       .  S
C317        C318   1.420       .  A
C317        C322   1.431       .  A
C317        H324   1.083       .  S
C318        C319   1.426       .  A
C319        C320   1.437       .  A
C319        N326   1.431       .  S
C320        C321   1.433       .  A
C320        H325   1.079       .  S
C321        C322   1.435       .  A
C322        N323   1.415       .  S
N323        H327   1.043       .  S
N323        H328   1.038       .  S
N326        H329   1.045       .  S
N326        H330   1.033       .  S
C331        C332   1.409       .  A
C331        C336   1.425       .  A
C331        H338   1.073       .  S
C332        C333   1.447       .  A
C333        C334   1.460       .  A
C333        N340   1.433       .  S
C334        C335   1.426       .  A
C334        H339   1.069       .  S
C335        C336   1.433       .  A
C336        N337   1.427       .  S
N337        H341   1.046       .  S
N337        H342   1.041       .  S
N340        H343   1.044       .  S
N340        H344   1.044       .  S
C345        C346   1.444       .  A
C345        C350   1.490       .  A
C345        H352   1.082       .  S
C346        C347   1.354       .  A
C347        C348   1.322       .  A
C347        N354   1.383       .  S
C348        C349   1.383       .  A
C348        H353   1.051       .  S
C349        C350   1.475       .  A
C350        N351   1.432       .  S
N351        H355   1.045   1_655  S
N351        H356   1.035   1_655  S
N354        H357   1.020       .  S
N354        H358   1.011       .  S
C359        C360   1.489       .  A
C359        C364   1.517       .  A
C359        H366   1.080       .  S
C360        C361   1.371       .  A
C361        C362   1.379       .  A
C361        N368   1.440       .  S
C362        C363   1.344       .  A
C362        H367   1.056       .  S
C363        C364   1.482       .  A
C364        N365   1.432       .  S
N365        H369   1.044       .  S
N365        H370   1.045       .  S
N368        H371   1.037       .  S
N368        H372   1.023       .  S
C373        C374   1.449       .  A
C373        C378   1.446       .  A
C373        H380   1.063       .  S
C374        C375   1.402       .  A
C375        C376   1.446       .  A
C375        N382   1.438       .  S
C376        C377   1.433       .  A
C376        H381   1.043       .  S
C377        C378   1.428       .  A
C378        N379   1.436       .  S
N379        H383   1.045       .  S
N379        H384   1.044       .  S
N382        H385   1.040       .  S
N382        H386   1.044       .  S
C387        C388   1.414       .  A
C387        C392   1.424       .  A
C387        H394   1.071       .  S
C388        C389   1.444       .  A
C389        C390   1.439       .  A
C389        N396   1.429       .  S
C390        C391   1.413       .  A
C390        H395   1.074       .  S
C391        C392   1.422       .  A
C392        N393   1.423       .  S
N393        H397   1.039       .  S
N393        H398   1.040       .  S
N396        H399   1.040       .  S
N396        H400   1.046       .  S
C401        C402   1.424       .  A
C401        C406   1.403       .  A
C401        H408   1.062       .  S
C402        C403   1.448       .  A
C403        C404   1.412       .  A
C403        N410   1.440       .  S
C404        C405   1.398       .  A
C404        H409   1.078       .  S
C405        C406   1.398       .  A
C406        N407   1.437       .  S
N407        H411   1.044   1_455  S
N407        H412   1.033   1_455  S
N410        H413   1.039   1_455  S
N410        H414   1.045       .  S
C415        C416   1.389       .  A
C415        C420   1.403       .  A
C415        H422   1.070       .  S
C416        C417   1.384       .  A
C417        C418   1.416       .  A
C417        N424   1.412       .  S
C418        C419   1.402       .  A
C418        H423   1.067       .  S
C419        C420   1.442       .  A
C420        N421   1.442       .  S
N421        H425   1.045       .  S
N421        H426   1.041       .  S
N424        H427   1.042       .  S
N424        H428   1.038       .  S
C429        C430   1.375       .  A
C429        C434   1.407       .  A
C429        H436   1.049       .  S
C430        C431   1.430       .  A
C431        C432   1.428       .  A
C431        N438   1.437       .  S
C432        C433   1.427       .  A
C432        H437   1.078       .  S
C433        C434   1.403       .  A
C434        N435   1.416       .  S
N435        H439   1.046       .  S
N435        H440   1.046       .  S
N438        H441   1.046       .  S
N438        H442   1.045       .  S
C443        C444   1.425       .  A
C443        C448   1.432       .  A
C443        H450   1.078       .  S
C444        C445   1.412       .  A
C445        C446   1.407       .  A
C445        N452   1.417       .  S
C446        C447   1.395       .  A
C446        H451   1.073       .  S
C447        C448   1.422       .  A
C448        N449   1.436       .  S
N449        H453   1.045       .  S
N449        H454   1.044       .  S
N452        H455   1.047       .  S
N452        H456   1.046       .  S
C457        C458   1.419       .  A
C457        C462   1.399       .  A
C457        H464   1.063       .  S
C458        C459   1.414       .  A
C459        C460   1.399       .  A
C459        N466   1.409       .  S
C460        C461   1.388       .  A
C460        H465   1.055       .  S
C461        C462   1.404       .  A
C462        N463   1.433       .  S
N463        H467   1.046       .  S
N463        H468   1.040       .  S
N466        H469   1.030       .  S
N466        H470   1.038       .  S
C471        C472   1.386       .  A
C471        C476   1.409       .  A
C471        H478   1.067       .  S
C472        C473   1.447       .  A
C473        C474   1.425       .  A
C473        N480   1.439       .  S
C474        C475   1.412       .  A
C474        H479   1.073       .  S
C475        C476   1.407       .  A
C476        N477   1.401       .  S
N477        H481   1.042       .  S
N477        H482   1.038       .  S
N480        H483   1.035       .  S
N480        H484   1.038       .  S
C485        C486   1.432       .  A
C485        C490   1.447       .  A
C485        H492   1.083       .  S
C486        C487   1.422       .  A
C487        C488   1.419       .  A
C487        N494   1.426       .  S
C488        C489   1.395       .  A
C488        H493   1.073       .  S
C489        C490   1.440       .  A
C490        N491   1.430       .  S
N491        H495   1.045       .  S
N491        H496   1.046       .  S
N494        H497   1.044       .  S
N494        H498   1.043       .  S
C499        C500   1.454       .  A
C499        C504   1.499       .  A
C499        H506   1.069       .  S
C500        C501   1.384       .  A
C501        C502   1.372       .  A
C501        N508   1.410       .  S
C502        C503   1.362       .  A
C502        H507   1.069       .  S
C503        C504   1.447       .  A
C504        N505   1.435       .  S
N505        H509   1.043       .  S
N505        H510   1.042       .  S
N508        H511   1.024       .  S
N508        H512   0.986       .  S
C513        C514   1.388       .  A
C513        C518   1.378       .  A
C513        H520   1.040       .  S
C514        C515   1.423       .  A
C515        C516   1.451       .  A
C515        N522   1.429       .  S
C516        C517   1.429       .  A
C516        H521   1.047       .  S
C517        C518   1.433       .  A
C518        N519   1.445       .  S
N519        H523   1.046       .  S
N519        H524   1.039       .  S
N522        H525   1.035       .  S
N522        H526   1.043       .  S
C527        C528   1.427       .  A
C527        C532   1.464       .  A
C527        H534   1.077       .  S
C528        C529   1.408       .  A
C529        C530   1.369       .  A
C529        N536   1.432       .  S
C530        C531   1.370       .  A
C530        H535   1.056       .  S
C531        C532   1.439       .  A
C532        N533   1.383       .  S
N533        H537   1.045       .  S
N533        H538   1.034       .  S
N536        H539   1.040       .  S
N536        H540   1.040       .  S
C541        C542   1.428       .  A
C541        C546   1.427       .  A
C541        H548   1.056       .  S
C542        C543   1.422       .  A
C543        C544   1.397       .  A
C543        N550   1.430       .  S
C544        C545   1.419       .  A
C544        H549   1.060       .  S
C545        C546   1.376       .  A
C546        N547   1.426       .  S
N547        H551   1.025       .  S
N547        H552   1.034       .  S
N550        H553   1.034       .  S
N550        H554   1.035       .  S
C555        C556   1.389       .  A
C555        C560   1.412       .  A
C555        H562   1.080       .  S
C556        C557   1.429       .  A
C557        C558   1.443       .  A
C557        N564   1.435       .  S
C558        C559   1.424       .  A
C558        H563   1.076       .  S
C559        C560   1.435       .  A
C560        N561   1.434       .  S
N561        H565   1.047       .  S
N561        H566   1.044       .  S
N564        H567   1.039       .  S
N564        H568   1.043       .  S
C569        C570   1.427       .  A
C569        C574   1.448       .  A
C569        H576   1.081       .  S
C570        C571   1.477       .  A
C571        C572   1.434       .  A
C571        N578   1.428       .  S
C572        C573   1.408       .  A
C572        H577   1.085       .  S
C573        C574   1.429       .  A
C574        N575   1.406       .  S
N575        H579   1.043       .  S
N575        H580   1.042       .  S
N578        H581   1.043       .  S
N578        H582   1.046       .  S
C583        C584   1.446       .  A
C583        C588   1.497       .  A
C583        H590   1.080       .  S
C584        C585   1.303       .  A
C585        C586   1.336       .  A
C585        N592   1.349       .  S
C586        C587   1.376       .  A
C586        H591   1.037       .  S
C587        C588   1.496       .  A
C588        N589   1.433   1_455  S
N589        H593   1.045       .  S
N589        H594   1.035       .  S
N592        H595   1.028       .  S
N592        H596   1.009       .  S
C597        C598   1.412       .  A
C597        C602   1.443       .  A
C597        H604   1.084       .  S
C598        C599   1.432       .  A
C599        C600   1.442       .  A
C599        N606   1.435       .  S
C600        C601   1.415       .  A
C600        H605   1.071       .  S
C601        C602   1.464       .  A
C602        N603   1.424       .  S
N603        H607   1.035       .  S
N603        H608   1.044       .  S
N606        H609   1.044       .  S
N606        H610   1.046       .  S
C611        C612   1.366       .  A
C611        C616   1.376       .  A
C611        H618   1.084       .  S
C612        C613   1.513       .  A
C613        C614   1.564       .  A
C613        N620   1.429       .  S
C614        C615   1.511       .  A
C614        H619   1.078       .  S
C615        C616   1.322       .  A
C616        N617   1.444       .  S
N617        H621   0.995       .  S
N617        H622   1.040       .  S
N620        H623   1.045       .  S
N620        H624   1.044       .  S
C625        C626   1.420       .  A
C625        C630   1.443       .  A
C625        H632   1.081       .  S
C626        C627   1.417       .  A
C627        C628   1.454       .  A
C627        N634   1.441       .  S
C628        C629   1.433       .  A
C628        H633   1.079       .  S
C629        C630   1.430       .  A
C630        N631   1.421       .  S
N631        H635   1.040       .  S
N631        H636   1.044       .  S
N634        H637   1.040       .  S
N634        H638   1.042       .  S
C639        C640   1.414       .  A
C639        C644   1.438       .  A
C639        H646   1.076       .  S
C640        C641   1.447       .  A
C641        C642   1.393       .  A
C641        N648   1.425       .  S
C642        C643   1.392       .  A
C642        H647   1.069       .  S
C643        C644   1.430       .  A
C644        N645   1.417       .  S
N645        H649   1.045       .  S
N645        H650   1.034       .  S
N648        H651   1.032       .  S
N648        H652   1.046       .  S
C653        C654   1.399       .  A
C653        C658   1.424       .  A
C653        H660   1.081       .  S
C654        C655   1.432       .  A
C655        C656   1.417       .  A
C655        N662   1.410       .  S
C656        C657   1.402       .  A
C656        H661   1.080       .  S
C657        C658   1.425       .  A
C658        N659   1.432       .  S
N659        H663   1.044       .  S
N659        H664   1.045       .  S
N662        H665   1.034       .  S
N662        H666   1.036       .  S
C667        C668   1.349       .  A
C667        C672   1.363       .  A
C667        H674   1.083       .  S
C668        C669   1.477       .  A
C669        C670   1.484       .  A
C669        N676   1.409       .  S
C670        C671   1.445       .  A
C670        H675   1.076       .  S
C671        C672   1.378       .  A
C672        N673   1.414       .  S
N673        H677   1.025       .  S
N673        H678   1.027       .  S
N676        H679   1.030       .  S
N676        H680   1.035       .  S
C681        C682   1.406       .  A
C681        C686   1.367       .  A
C681        H688   1.037       .  S
C682        C683   1.431       .  A
C683        C684   1.450       .  A
C683        N690   1.429       .  S
C684        C685   1.409       .  A
C684        H689   1.034       .  S
C685        C686   1.381       .  A
C686        N687   1.441       .  S
N687        H691   1.044       .  S
N687        H692   1.027   1_455  S
N690        H693   1.036       .  S
N690        H694   1.041       .  S
C695        C696   1.418       .  A
C695        C700   1.435       .  A
C695        H702   1.069       .  S
C696        C697   1.443       .  A
C697        C698   1.421       .  A
C697        N704   1.445       .  S
C698        C699   1.419       .  A
C698        H703   1.068       .  S
C699        C700   1.403       .  A
C700        N701   1.428       .  S
N701        H705   1.038       .  S
N701        H706   1.036       .  S
N704        H707   1.041       .  S
N704        H708   1.045       .  S
C709        C710   1.420       .  A
C709        C714   1.447       .  A
C709        H716   1.037       .  S
C710        C711   1.417       .  A
C711        C712   1.409       .  A
C711        N718   1.428       .  S
C712        C713   1.409       .  A
C712        H717   1.064       .  S
C713        C714   1.427       .  A
C714        N715   1.440       .  S
N715        H719   1.046       .  S
N715        H720   1.030       .  S
N718        H721   1.040       .  S
N718        H722   1.043       .  S
C723        C724   1.439       .  A
C723        C728   1.453       .  A
C723        H730   1.071       .  S
C724        C725   1.420       .  A
C725        C726   1.421       .  A
C725        N732   1.439       .  S
C726        C727   1.412       .  A
C726        H731   1.054       .  S
C727        C728   1.439       .  A
C728        N729   1.436       .  S
N729        H733   1.044       .  S
N729        H734   1.044       .  S
N732        H735   1.045       .  S
N732        H736   1.045       .  S
C737        C738   1.418       .  A
C737        C742   1.437       .  A
C737        H744   1.072       .  S
C738        C739   1.420       .  A
C739        C740   1.409       .  A
C739        N746   1.446       .  S
C740        C741   1.421       .  A
C740        H745   1.050       .  S
C741        C742   1.441       .  A
C742        N743   1.438   1_455  S
N743        H747   1.046       .  S
N743        H748   1.039       .  S
N746        H749   1.043       .  S
N746        H750   1.046       .  S
C751        C752   1.446       .  A
C751        C756   1.441       .  A
C751        H758   1.082       .  S
C752        C753   1.417       .  A
C753        C754   1.408       .  A
C753        N760   1.434       .  S
C754        C755   1.399       .  A
C754        H759   1.035       .  S
C755        C756   1.421       .  A
C756        N757   1.438       .  S
N757        H761   1.046       .  S
N757        H762   1.046       .  S
N760        H763   1.040       .  S
N760        H764   1.045       .  S
C765        C766   1.434       .  A
C765        C770   1.428       .  A
C765        H772   1.060       .  S
C766        C767   1.425       .  A
C767        C768   1.436       .  A
C767        N774   1.435       .  S
C768        C769   1.402       .  A
C768        H773   1.053       .  S
C769        C770   1.419       .  A
C770        N771   1.432       .  S
N771        H775   1.045       .  S
N771        H776   1.045       .  S
N774        H777   1.041       .  S
N774        H778   1.045       .  S
C779        C780   1.434       .  A
C779        C784   1.478       .  A
C779        H786   1.075       .  S
C780        C781   1.386       .  A
C781        C782   1.348       .  A
C781        N788   1.388       .  S
C782        C783   1.377       .  A
C782        H787   1.079       .  S
C783        C784   1.432       .  A
C784        N785   1.412       .  S
N785        H789   1.041       .  S
N785        H790   1.040       .  S
N788        H791   1.008       .  S
N788        H792   1.001       .  S
C793        C794   1.433       .  A
C793        C798   1.418       .  A
C793        H800   1.032       .  S
C794        C795   1.429       .  A
C795        C796   1.432       .  A
C795        N802   1.435       .  S
C796        C797   1.442       .  A
C796        H801   1.063       .  S
C797        C798   1.408       .  A
C798        N799   1.440       .  S
N799        H803   1.044       .  S
N799        H804   1.041       .  S
N802        H805   1.040       .  S
N802        H806   1.045       .  S
C807        C808   1.411       .  A
C807        C812   1.425       .  A
C807        H814   1.080       .  S
C808        C809   1.434       .  A
C809        C810   1.414       .  A
C809        N816   1.423       .  S
C810        C811   1.391       .  A
C810        H815   1.076       .  S
C811        C812   1.431       .  A
C812        N813   1.434       .  S
N813        H817   1.045       .  S
N813        H818   1.043       .  S
N816        H819   1.040       .  S
N816        H820   1.047       .  S
C821        C856   1.585       .  S
C821       C1600   1.627       .  S
C821       C1617   1.633       .  S
C821       C1631   1.588       .  S
C822        C889   1.619       .  S
C822       C1572   1.634       .  S
C822       C1589   1.630       .  S
C822       C1603   1.623       .  S
C823        C915   1.548       .  S
C823       C1561   1.681       .  S
C823       C1586   1.648       .  S
C823       C1628   1.627       .  S
C824        C948   1.620       .  S
C824       C1558   1.651       .  S
C824       C1575   1.647       .  S
C824       C1614   1.653       .  S
C825        C870   1.602       .  S
C825       C1519   1.627       .  S
C825       C1530   1.646       .  S
C825       C1544   1.669       .  S
C826        C934   1.637       .  S
C826       C1488   1.618       .  S
C826       C1505   1.609       .  S
C826       C1547   1.688       .  S
C827        C951   1.580       .  S
C827       C1474   1.630       .  S
C827       C1502   1.610       .  S
C827       C1533   1.647       .  S
C828        C837   1.602       .  S
C828       C1477   1.582       .  S
C828       C1491   1.609       .  S
C828       C1516   1.622       .  S
O829        C837   1.280       .  A
O830        C838   1.273       .  A
O831        C839   1.289       .  A
O832        C840   1.272       .  A
O833        C839   1.289       .  A
O834        C840   1.270       .  A
O835        C838   1.287       .  A
O836        C837   1.273       .  A
C838        C903   1.574       .  S
C839        C895   1.597       .  S
C840        C891   1.592       .  S
O841        C854   1.269       .  A
O841       Co849   2.008       .  S
O842        C855   1.259       .  A
O842       Co850   2.036       .  S
O843        C856   1.291       .  A
O843       Co851   2.071       .  S
O844        C857   1.259       .  A
O844       Co852   2.030       .  S
O845        C857   1.288       .  A
O845       Co850   2.116       .  S
O846        C856   1.268       .  A
O846       Co849   2.021       .  S
O847        C854   1.284       .  A
O847       Co852   2.041       .  S
O848        C855   1.265       .  A
O848       Co851   2.014       .  S
Co849       O853   2.187       .  S
Co850       O853   2.257       .  S
Co851       O853   2.042       .  S
Co852       O853   2.065       .  S
C854        C938   1.552       .  S
C855        C858   1.564       .  S
C857        C901   1.612       .  S
C858       C1435   1.650       .  S
C858       C1446   1.650       .  S
C858       C1460   1.639       .  S
C859        C918   1.581       .  S
C859       C1407   1.673       .  S
C859       C1418   1.659       .  S
C859       C1463   1.605       .  S
C860        C950   1.569       .  S
C860       C1390   1.707       .  S
C860       C1404   1.632       .  S
C860       C1449   1.660       .  S
C861        C888   1.571       .  S
C861       C1393   1.673       .  S
C861       C1421   1.667       .  S
C861       C1432   1.681       .  S
O862        C870   1.306       .  A
O862       Co882   2.133       .  S
O863        C871   1.262       .  A
O863       Co883   2.036       .  S
O864        C872   1.264       .  A
O864       Co884   2.005       .  S
O865        C873   1.287       .  A
O865       Co885   1.962   1_545  S
O866        C872   1.271       .  A
O866       Co883   2.043       .  S
O867        C873   1.301       .  A
O867       Co882   2.126       .  S
O868        C871   1.298       .  A
O868       Co885   2.137       .  S
O869        C870   1.263       .  A
O869       Co884   1.991   1_545  S
C871        C905   1.651       .  S
C872        C896   1.568       .  S
C873        C893   1.590       .  S
O874        C887   1.287       .  A
O874       Co882   2.005       .  S
O875        C888   1.274       .  A
O875       Co883   2.035       .  S
O876        C889   1.268       .  A
O876       Co884   2.031   1_545  S
O877        C890   1.301       .  A
O877       Co885   2.114       .  S
O878        C890   1.279       .  A
O878       Co883   2.023       .  S
O879        C889   1.274       .  A
O879       Co882   2.088       .  S
O880        C887   1.326       .  A
O880       Co885   2.187   1_545  S
O881        C888   1.271       .  A
O881       Co884   2.032       .  S
Co882       O886   2.171   1_545  S
Co883       O886   2.183       .  S
Co884       O886   2.163       .  S
Co885       O886   2.131       .  S
C887        C936   1.648       .  S
C890        C899   1.602       .  S
C891       C1351   1.614       .  S
C891       C1362   1.603       .  S
C891       C1376   1.610       .  S
C892        C965   1.571       .  S
C892       C1320   1.640       .  S
C892       C1334   1.613       .  S
C892       C1379   1.625       .  S
C893       C1306   1.629       .  S
C893       C1323   1.623       .  S
C893       C1348   1.656       .  S
C894        C933   1.533       .  S
C894       C1309   1.648       .  S
C894       C1337   1.655       .  S
C894       C1365   1.617       .  S
C895       C1264   1.623       .  S
C895       C1281   1.574       .  S
C895       C1295   1.643       .  S
C896       C1239   1.601       .  S
C896       C1250   1.623       .  S
C896       C1292   1.613       .  S
C897        C949   1.605       .  S
C897       C1222   1.633       .  S
C897       C1236   1.566       .  S
C897       C1267   1.615       .  S
C898        C932   1.591       .  S
C898       C1225   1.613       .  S
C898       C1253   1.614       .  S
C898       C1278   1.608       .  S
C899       C1180   1.671       .  S
C899       C1194   1.664       .  S
C899       C1211   1.623       .  S
C900        C966   1.596       .  S
C900       C1152   1.671       .  S
C900       C1169   1.614       .  S
C900       C1208   1.643       .  S
C901       C1141   1.671       .  S
C901       C1155   1.661       .  S
C901       C1183   1.625       .  S
C902        C916   1.589       .  S
C902       C1138   1.647       .  S
C902       C1166   1.609       .  S
C902       C1197   1.648       .  S
C903       C1099   1.674       .  S
C903       C1113   1.633       .  S
C903       C1124   1.641       .  S
C904        C968   1.620       .  S
C904       C1068   1.635       .  S
C904       C1085   1.576       .  S
C904       C1110   1.606       .  S
C905       C1054   1.639       .  S
C905       C1071   1.679       .  S
C905       C1096   1.687       .  S
C906        C935   1.591       .  S
C906       C1057   1.645       .  S
C906       C1082   1.592       .  S
C906       C1127   1.599       .  S
O907        C915   1.293       .  A
O907       Co927   2.091   1_545  S
O908        C916   1.259       .  A
O908       Co928   2.004       .  S
O909        C917   1.281       .  A
O909       Co929   2.072       .  S
O910        C918   1.275       .  A
O910       Co930   1.932   1_455  S
O911        C917   1.275       .  A
O911       Co928   2.054   1_545  S
O912        C918   1.310       .  A
O912       Co927   2.147       .  S
O913        C916   1.272       .  A
O913       Co930   2.093       .  S
O914        C915   1.249       .  A
O914       Co929   1.959   1_455  S
C917        C937   1.604       .  S
O919        C932   1.278       .  A
O920        C933   1.256       .  A
O921        C934   1.282       .  A
O922        C935   1.301       .  A
O923        C935   1.263       .  A
O924        C934   1.277       .  A
O925        C932   1.308       .  A
O926        C933   1.266       .  A
Co927       O931   2.103   1_455  S
Co928       O931   2.124       .  S
Co929       O931   2.097   1_545  S
Co930       O931   2.079       .  S
C936       C1012   1.691       .  S
C936       C1029   1.662       .  S
C936       C1040   1.625       .  S
C937        C984   1.609       .  S
C937       C1001   1.573       .  S
C937       C1043   1.636       .  S
C938        C973   1.638       .  S
C938        C987   1.633       .  S
C938       C1015   1.667       .  S
C939        C967   1.560       .  S
C939        C970   1.594       .  S
C939        C998   1.594       .  S
C939       C1026   1.624       .  S
O940        C948   1.277       .  A
O940       Co960   2.075   1_455  S
O941        C949   1.288       .  A
O941       Co961   2.109   1_455  S
O942        C950   1.277       .  A
O942       Co962   1.943   1_455  S
O943        C951   1.267       .  A
O943       Co963   2.014   1_455  S
O944        C950   1.309       .  A
O944       Co961   2.139   1_455  S
O945        C951   1.277       .  A
O945       Co960   2.049   1_455  S
O946        C949   1.254       .  A
O946       Co963   1.967   1_455  S
O947        C948   1.278       .  A
O947       Co962   2.067   1_455  S
O952        C965   1.259       .  A
O952       Co960   2.012       .  S
O953        C966   1.275       .  A
O953       Co961   1.953       .  S
O954        C967   1.284       .  A
O954       Co962   2.095       .  S
O955        C968   1.277       .  A
O955       Co963   2.056       .  S
O956        C968   1.273       .  A
O956       Co961   2.063       .  S
O957        C967   1.248       .  A
O957       Co960   1.933       .  S
O958        C965   1.269       .  A
O958       Co963   2.037       .  S
O959        C966   1.312       .  A
O959       Co962   2.160       .  S
Co960       O964   2.131       .  S
Co961       O964   2.129       .  S
Co962       O964   2.125       .  S
Co963       O964   2.129       .  S
C969        C970   1.406       .  A
C969        C974   1.423       .  A
C969        H976   1.064       .  S
C970        C971   1.411       .  A
C971        C972   1.429       .  A
C971        N978   1.438       .  S
C972        C973   1.423       .  A
C972        H977   1.063       .  S
C973        C974   1.423       .  A
C974        N975   1.418       .  S
N975        H979   1.045       .  S
N975        H980   1.046       .  S
N978        H981   1.041       .  S
N978        H982   1.042       .  S
C983        C984   1.434       .  A
C983        C988   1.408       .  A
C983        H990   1.078       .  S
C984        C985   1.408       .  A
C985        C986   1.435       .  A
C985        N992   1.430       .  S
C986        C987   1.403       .  A
C986        H991   1.044       .  S
C987        C988   1.406       .  A
C988        N989   1.433       .  S
N989        H993   1.038       .  S
N989        H994   1.045       .  S
N992        H995   1.042       .  S
N992        H996   1.037       .  S
C997        C998   1.436       .  A
C997       C1002   1.477       .  A
C997       H1004   1.059       .  S
C998        C999   1.387       .  A
C999       C1000   1.335       .  A
C999       N1006   1.386       .  S
C1000      C1001   1.370       .  A
C1000      H1005   1.072       .  S
C1001      C1002   1.390       .  A
C1002      N1003   1.423       .  S
N1003      H1007   1.039       .  S
N1003      H1008   1.034       .  S
N1006      H1009   1.008       .  S
N1006      H1010   1.008       .  S
C1011      C1012   1.443       .  A
C1011      C1016   1.410       .  A
C1011      H1018   1.056       .  S
C1012      C1013   1.442       .  A
C1013      C1014   1.462       .  A
C1013      N1020   1.441       .  S
C1014      C1015   1.438       .  A
C1014      H1019   1.071       .  S
C1015      C1016   1.399       .  A
C1016      N1017   1.442       .  S
N1017      H1021   1.036       .  S
N1017      H1022   1.046       .  S
N1020      H1023   1.043       .  S
N1020      H1024   1.045       .  S
C1025      C1026   1.410       .  A
C1025      C1030   1.429       .  A
C1025      H1032   1.084       .  S
C1026      C1027   1.406       .  A
C1027      C1028   1.420       .  A
C1027      N1034   1.435       .  S
C1028      C1029   1.431       .  A
C1028      H1033   1.052       .  S
C1029      C1030   1.454       .  A
C1030      N1031   1.414       .  S
N1031      H1035   1.047       .  S
N1031      H1036   1.039       .  S
N1034      H1037   1.044       .  S
N1034      H1038   1.044       .  S
C1039      C1040   1.387       .  A
C1039      C1044   1.433       .  A
C1039      H1046   1.083       .  S
C1040      C1041   1.411       .  A
C1041      C1042   1.442       .  A
C1041      N1048   1.436       .  S
C1042      C1043   1.449       .  A
C1042      H1047   1.078       .  S
C1043      C1044   1.432       .  A
C1044      N1045   1.425       .  S
N1045      H1049   1.040       .  S
N1045      H1050   1.045       .  S
N1048      H1051   1.043       .  S
N1048      H1052   1.045       .  S
C1053      C1054   1.422       .  A
C1053      C1058   1.425       .  A
C1053      H1060   1.074       .  S
C1054      C1055   1.422       .  A
C1055      C1056   1.436       .  A
C1055      N1062   1.424       .  S
C1056      C1057   1.414       .  A
C1056      H1061   1.065       .  S
C1057      C1058   1.434       .  A
C1058      N1059   1.436       .  S
N1059      H1063   1.041       .  S
N1059      H1064   1.045       .  S
N1062      H1065   1.045       .  S
N1062      H1066   1.046       .  S
C1067      C1068   1.407       .  A
C1067      C1072   1.439       .  A
C1067      H1074   1.076       .  S
C1068      C1069   1.436       .  A
C1069      C1070   1.433       .  A
C1069      N1076   1.428       .  S
C1070      C1071   1.425       .  A
C1070      H1075   1.061       .  S
C1071      C1072   1.454       .  A
C1072      N1073   1.424       .  S
N1073      H1077   1.046       .  S
N1073      H1078   1.034       .  S
N1076      H1079   1.042       .  S
N1076      H1080   1.040       .  S
C1081      C1082   1.404       .  A
C1081      C1086   1.439       .  A
C1081      H1088   1.055       .  S
C1082      C1083   1.415       .  A
C1083      C1084   1.332       .  A
C1083      N1090   1.385       .  S
C1084      C1085   1.352       .  A
C1084      H1089   1.080       .  S
C1085      C1086   1.397       .  A
C1086      N1087   1.379       .  S
N1087      H1091   1.028       .  S
N1087      H1092   1.037       .  S
N1090      H1093   1.001       .  S
N1090      H1094   1.006       .  S
C1095      C1096   1.447       .  A
C1095      C1100   1.455       .  A
C1095      H1102   1.063       .  S
C1096      C1097   1.404       .  A
C1097      C1098   1.436       .  A
C1097      N1104   1.412       .  S
C1098      C1099   1.402       .  A
C1098      H1103   1.076       .  S
C1099      C1100   1.447       .  A
C1100      N1101   1.443       .  S
N1101      H1105   1.040       .  S
N1101      H1106   1.047       .  S
N1104      H1107   1.042       .  S
N1104      H1108   1.035       .  S
C1109      C1110   1.409       .  A
C1109      C1114   1.426       .  A
C1109      H1116   1.077       .  S
C1110      C1111   1.432       .  A
C1111      C1112   1.414       .  A
C1111      N1118   1.436       .  S
C1112      C1113   1.393       .  A
C1112      H1117   1.058       .  S
C1113      C1114   1.444       .  A
C1114      N1115   1.428       .  S
N1115      H1119   1.045       .  S
N1115      H1120   1.045       .  S
N1118      H1121   1.034       .  S
N1118      H1122   1.041       .  S
C1123      C1124   1.401       .  A
C1123      C1128   1.420       .  A
C1123      H1130   1.051       .  S
C1124      C1125   1.442       .  A
C1125      C1126   1.415       .  A
C1125      N1132   1.432       .  S
C1126      C1127   1.415       .  A
C1126      H1131   1.073       .  S
C1127      C1128   1.398       .  A
C1128      N1129   1.411       .  S
N1129      H1133   1.039       .  S
N1129      H1134   1.044       .  S
N1132      H1135   1.039       .  S
N1132      H1136   1.044       .  S
C1137      C1138   1.420       .  A
C1137      C1142   1.431       .  A
C1137      H1144   1.083       .  S
C1138      C1139   1.426       .  A
C1139      C1140   1.437       .  A
C1139      N1146   1.431       .  S
C1140      C1141   1.433       .  A
C1140      H1145   1.079       .  S
C1141      C1142   1.435       .  A
C1142      N1143   1.415       .  S
N1143      H1147   1.043       .  S
N1143      H1148   1.038       .  S
N1146      H1149   1.045       .  S
N1146      H1150   1.033       .  S
C1151      C1152   1.409       .  A
C1151      C1156   1.425       .  A
C1151      H1158   1.073       .  S
C1152      C1153   1.447       .  A
C1153      C1154   1.460       .  A
C1153      N1160   1.433       .  S
C1154      C1155   1.426       .  A
C1154      H1159   1.069       .  S
C1155      C1156   1.433       .  A
C1156      N1157   1.427       .  S
N1157      H1161   1.046       .  S
N1157      H1162   1.041       .  S
N1160      H1163   1.044       .  S
N1160      H1164   1.044       .  S
C1165      C1166   1.444       .  A
C1165      C1170   1.490       .  A
C1165      H1172   1.082       .  S
C1166      C1167   1.354       .  A
C1167      C1168   1.322       .  A
C1167      N1174   1.383       .  S
C1168      C1169   1.383       .  A
C1168      H1173   1.051       .  S
C1169      C1170   1.475       .  A
C1170      N1171   1.432       .  S
N1171      H1175   1.045   1_655  S
N1171      H1176   1.035   1_655  S
N1174      H1177   1.020       .  S
N1174      H1178   1.011       .  S
C1179      C1180   1.489       .  A
C1179      C1184   1.517       .  A
C1179      H1186   1.080       .  S
C1180      C1181   1.371       .  A
C1181      C1182   1.379       .  A
C1181      N1188   1.440       .  S
C1182      C1183   1.344       .  A
C1182      H1187   1.056       .  S
C1183      C1184   1.482       .  A
C1184      N1185   1.432       .  S
N1185      H1189   1.044       .  S
N1185      H1190   1.045       .  S
N1188      H1191   1.037       .  S
N1188      H1192   1.023       .  S
C1193      C1194   1.449       .  A
C1193      C1198   1.446       .  A
C1193      H1200   1.063       .  S
C1194      C1195   1.402       .  A
C1195      C1196   1.446       .  A
C1195      N1202   1.438       .  S
C1196      C1197   1.433       .  A
C1196      H1201   1.043       .  S
C1197      C1198   1.428       .  A
C1198      N1199   1.436       .  S
N1199      H1203   1.045       .  S
N1199      H1204   1.044       .  S
N1202      H1205   1.040       .  S
N1202      H1206   1.044       .  S
C1207      C1208   1.414       .  A
C1207      C1212   1.424       .  A
C1207      H1214   1.071       .  S
C1208      C1209   1.444       .  A
C1209      C1210   1.439       .  A
C1209      N1216   1.429       .  S
C1210      C1211   1.413       .  A
C1210      H1215   1.074       .  S
C1211      C1212   1.422       .  A
C1212      N1213   1.423       .  S
N1213      H1217   1.039       .  S
N1213      H1218   1.040       .  S
N1216      H1219   1.040       .  S
N1216      H1220   1.046       .  S
C1221      C1222   1.424       .  A
C1221      C1226   1.403       .  A
C1221      H1228   1.062       .  S
C1222      C1223   1.448       .  A
C1223      C1224   1.412       .  A
C1223      N1230   1.440       .  S
C1224      C1225   1.398       .  A
C1224      H1229   1.078       .  S
C1225      C1226   1.398       .  A
C1226      N1227   1.437       .  S
N1227      H1231   1.044   1_455  S
N1227      H1232   1.033   1_455  S
N1230      H1233   1.039   1_455  S
N1230      H1234   1.045       .  S
C1235      C1236   1.389       .  A
C1235      C1240   1.403       .  A
C1235      H1242   1.070       .  S
C1236      C1237   1.384       .  A
C1237      C1238   1.416       .  A
C1237      N1244   1.412       .  S
C1238      C1239   1.402       .  A
C1238      H1243   1.067       .  S
C1239      C1240   1.442       .  A
C1240      N1241   1.442       .  S
N1241      H1245   1.045       .  S
N1241      H1246   1.041       .  S
N1244      H1247   1.042       .  S
N1244      H1248   1.038       .  S
C1249      C1250   1.375       .  A
C1249      C1254   1.407       .  A
C1249      H1256   1.049       .  S
C1250      C1251   1.430       .  A
C1251      C1252   1.428       .  A
C1251      N1258   1.437       .  S
C1252      C1253   1.427       .  A
C1252      H1257   1.078       .  S
C1253      C1254   1.403       .  A
C1254      N1255   1.416       .  S
N1255      H1259   1.046       .  S
N1255      H1260   1.046       .  S
N1258      H1261   1.046       .  S
N1258      H1262   1.045       .  S
C1263      C1264   1.425       .  A
C1263      C1268   1.432       .  A
C1263      H1270   1.078       .  S
C1264      C1265   1.412       .  A
C1265      C1266   1.407       .  A
C1265      N1272   1.417       .  S
C1266      C1267   1.395       .  A
C1266      H1271   1.073       .  S
C1267      C1268   1.422       .  A
C1268      N1269   1.436       .  S
N1269      H1273   1.045       .  S
N1269      H1274   1.044       .  S
N1272      H1275   1.047       .  S
N1272      H1276   1.046       .  S
C1277      C1278   1.419       .  A
C1277      C1282   1.399       .  A
C1277      H1284   1.063       .  S
C1278      C1279   1.414       .  A
C1279      C1280   1.399       .  A
C1279      N1286   1.409       .  S
C1280      C1281   1.388       .  A
C1280      H1285   1.055       .  S
C1281      C1282   1.404       .  A
C1282      N1283   1.433       .  S
N1283      H1287   1.046       .  S
N1283      H1288   1.040       .  S
N1286      H1289   1.030   1_556  S
N1286      H1290   1.038       .  S
C1291      C1292   1.386       .  A
C1291      C1296   1.409       .  A
C1291      H1298   1.067       .  S
C1292      C1293   1.447       .  A
C1293      C1294   1.425       .  A
C1293      N1300   1.439       .  S
C1294      C1295   1.412       .  A
C1294      H1299   1.073       .  S
C1295      C1296   1.407       .  A
C1296      N1297   1.401       .  S
N1297      H1301   1.042       .  S
N1297      H1302   1.038       .  S
N1300      H1303   1.035       .  S
N1300      H1304   1.038       .  S
C1305      C1306   1.432       .  A
C1305      C1310   1.447       .  A
C1305      H1312   1.083       .  S
C1306      C1307   1.422       .  A
C1307      C1308   1.419       .  A
C1307      N1314   1.426       .  S
C1308      C1309   1.395       .  A
C1308      H1313   1.073       .  S
C1309      C1310   1.440       .  A
C1310      N1311   1.430       .  S
N1311      H1315   1.045       .  S
N1311      H1316   1.046       .  S
N1314      H1317   1.044       .  S
N1314      H1318   1.043       .  S
C1319      C1320   1.454       .  A
C1319      C1324   1.499       .  A
C1319      H1326   1.069       .  S
C1320      C1321   1.384       .  A
C1321      C1322   1.372       .  A
C1321      N1328   1.410       .  S
C1322      C1323   1.362       .  A
C1322      H1327   1.069       .  S
C1323      C1324   1.447       .  A
C1324      N1325   1.435       .  S
N1325      H1329   1.043       .  S
N1325      H1330   1.042       .  S
N1328      H1331   1.024       .  S
N1328      H1332   0.986       .  S
C1333      C1334   1.388       .  A
C1333      C1338   1.378       .  A
C1333      H1340   1.040       .  S
C1334      C1335   1.423       .  A
C1335      C1336   1.451       .  A
C1335      N1342   1.429       .  S
C1336      C1337   1.429       .  A
C1336      H1341   1.047       .  S
C1337      C1338   1.433       .  A
C1338      N1339   1.445       .  S
N1339      H1343   1.046       .  S
N1339      H1344   1.039       .  S
N1342      H1345   1.035       .  S
N1342      H1346   1.043       .  S
C1347      C1348   1.427       .  A
C1347      C1352   1.464       .  A
C1347      H1354   1.077       .  S
C1348      C1349   1.408       .  A
C1349      C1350   1.369       .  A
C1349      N1356   1.432       .  S
C1350      C1351   1.370       .  A
C1350      H1355   1.056       .  S
C1351      C1352   1.439       .  A
C1352      N1353   1.383       .  S
N1353      H1357   1.045       .  S
N1353      H1358   1.034       .  S
N1356      H1359   1.040       .  S
N1356      H1360   1.040       .  S
C1361      C1362   1.428       .  A
C1361      C1366   1.427       .  A
C1361      H1368   1.056       .  S
C1362      C1363   1.422       .  A
C1363      C1364   1.397       .  A
C1363      N1370   1.430       .  S
C1364      C1365   1.419       .  A
C1364      H1369   1.060       .  S
C1365      C1366   1.376       .  A
C1366      N1367   1.426   1_556  S
N1367      H1371   1.025       .  S
N1367      H1372   1.034       .  S
N1370      H1373   1.034       .  S
N1370      H1374   1.035       .  S
C1375      C1376   1.389       .  A
C1375      C1380   1.412       .  A
C1375      H1382   1.080       .  S
C1376      C1377   1.429       .  A
C1377      C1378   1.443       .  A
C1377      N1384   1.435       .  S
C1378      C1379   1.424       .  A
C1378      H1383   1.076       .  S
C1379      C1380   1.435       .  A
C1380      N1381   1.434       .  S
N1381      H1385   1.047       .  S
N1381      H1386   1.044       .  S
N1384      H1387   1.039       .  S
N1384      H1388   1.043       .  S
C1389      C1390   1.427       .  A
C1389      C1394   1.448       .  A
C1389      H1396   1.081       .  S
C1390      C1391   1.477       .  A
C1391      C1392   1.434       .  A
C1391      N1398   1.428       .  S
C1392      C1393   1.408       .  A
C1392      H1397   1.085       .  S
C1393      C1394   1.429       .  A
C1394      N1395   1.406       .  S
N1395      H1399   1.043       .  S
N1395      H1400   1.042       .  S
N1398      H1401   1.043       .  S
N1398      H1402   1.046       .  S
C1403      C1404   1.446       .  A
C1403      C1408   1.497       .  A
C1403      H1410   1.080       .  S
C1404      C1405   1.303       .  A
C1405      C1406   1.336       .  A
C1405      N1412   1.349       .  S
C1406      C1407   1.376       .  A
C1406      H1411   1.037       .  S
C1407      C1408   1.496       .  A
C1408      N1409   1.433   1_455  S
N1409      H1413   1.045       .  S
N1409      H1414   1.035       .  S
N1412      H1415   1.028       .  S
N1412      H1416   1.009       .  S
C1417      C1418   1.412       .  A
C1417      C1422   1.443       .  A
C1417      H1424   1.084       .  S
C1418      C1419   1.432       .  A
C1419      C1420   1.442       .  A
C1419      N1426   1.435       .  S
C1420      C1421   1.415       .  A
C1420      H1425   1.071       .  S
C1421      C1422   1.464       .  A
C1422      N1423   1.424       .  S
N1423      H1427   1.035       .  S
N1423      H1428   1.044       .  S
N1426      H1429   1.044       .  S
N1426      H1430   1.046       .  S
C1431      C1432   1.366       .  A
C1431      C1436   1.376       .  A
C1431      H1438   1.084       .  S
C1432      C1433   1.513       .  A
C1433      C1434   1.564       .  A
C1433      N1440   1.429       .  S
C1434      C1435   1.511       .  A
C1434      H1439   1.078       .  S
C1435      C1436   1.322       .  A
C1436      N1437   1.444       .  S
N1437      H1441   0.995       .  S
N1437      H1442   1.040       .  S
N1440      H1443   1.045       .  S
N1440      H1444   1.044       .  S
C1445      C1446   1.420       .  A
C1445      C1450   1.443       .  A
C1445      H1452   1.081       .  S
C1446      C1447   1.417       .  A
C1447      C1448   1.454       .  A
C1447      N1454   1.441       .  S
C1448      C1449   1.433       .  A
C1448      H1453   1.079       .  S
C1449      C1450   1.430       .  A
C1450      N1451   1.421       .  S
N1451      H1455   1.040       .  S
N1451      H1456   1.044       .  S
N1454      H1457   1.040       .  S
N1454      H1458   1.042       .  S
C1459      C1460   1.414       .  A
C1459      C1464   1.438       .  A
C1459      H1466   1.076       .  S
C1460      C1461   1.447       .  A
C1461      C1462   1.393       .  A
C1461      N1468   1.425       .  S
C1462      C1463   1.392       .  A
C1462      H1467   1.069       .  S
C1463      C1464   1.430       .  A
C1464      N1465   1.417       .  S
N1465      H1469   1.045       .  S
N1465      H1470   1.034       .  S
N1468      H1471   1.032       .  S
N1468      H1472   1.046       .  S
C1473      C1474   1.399       .  A
C1473      C1478   1.424       .  A
C1473      H1480   1.081       .  S
C1474      C1475   1.432       .  A
C1475      C1476   1.417       .  A
C1475      N1482   1.410       .  S
C1476      C1477   1.402       .  A
C1476      H1481   1.080       .  S
C1477      C1478   1.425       .  A
C1478      N1479   1.432       .  S
N1479      H1483   1.044       .  S
N1479      H1484   1.045       .  S
N1482      H1485   1.034       .  S
N1482      H1486   1.036       .  S
C1487      C1488   1.349       .  A
C1487      C1492   1.363       .  A
C1487      H1494   1.083       .  S
C1488      C1489   1.477       .  A
C1489      C1490   1.484       .  A
C1489      N1496   1.409       .  S
C1490      C1491   1.445       .  A
C1490      H1495   1.076       .  S
C1491      C1492   1.378       .  A
C1492      N1493   1.414       .  S
N1493      H1497   1.025       .  S
N1493      H1498   1.027       .  S
N1496      H1499   1.030       .  S
N1496      H1500   1.035       .  S
C1501      C1502   1.406       .  A
C1501      C1506   1.367       .  A
C1501      H1508   1.037       .  S
C1502      C1503   1.431       .  A
C1503      C1504   1.450       .  A
C1503      N1510   1.429       .  S
C1504      C1505   1.409       .  A
C1504      H1509   1.034       .  S
C1505      C1506   1.381       .  A
C1506      N1507   1.441       .  S
N1507      H1511   1.044       .  S
N1507      H1512   1.027   1_455  S
N1510      H1513   1.036       .  S
N1510      H1514   1.041       .  S
C1515      C1516   1.418       .  A
C1515      C1520   1.435       .  A
C1515      H1522   1.069       .  S
C1516      C1517   1.443       .  A
C1517      C1518   1.421       .  A
C1517      N1524   1.445       .  S
C1518      C1519   1.419       .  A
C1518      H1523   1.068       .  S
C1519      C1520   1.403       .  A
C1520      N1521   1.428       .  S
N1521      H1525   1.038       .  S
N1521      H1526   1.036       .  S
N1524      H1527   1.041       .  S
N1524      H1528   1.045       .  S
C1529      C1530   1.420       .  A
C1529      C1534   1.447       .  A
C1529      H1536   1.037       .  S
C1530      C1531   1.417       .  A
C1531      C1532   1.409       .  A
C1531      N1538   1.428       .  S
C1532      C1533   1.409       .  A
C1532      H1537   1.064       .  S
C1533      C1534   1.427       .  A
C1534      N1535   1.440       .  S
N1535      H1539   1.046       .  S
N1535      H1540   1.030       .  S
N1538      H1541   1.040       .  S
N1538      H1542   1.043       .  S
C1543      C1544   1.439       .  A
C1543      C1548   1.453       .  A
C1543      H1550   1.071       .  S
C1544      C1545   1.420       .  A
C1545      C1546   1.421       .  A
C1545      N1552   1.439       .  S
C1546      C1547   1.412       .  A
C1546      H1551   1.054       .  S
C1547      C1548   1.439       .  A
C1548      N1549   1.436       .  S
N1549      H1553   1.044       .  S
N1549      H1554   1.044       .  S
N1552      H1555   1.045       .  S
N1552      H1556   1.045       .  S
C1557      C1558   1.418       .  A
C1557      C1562   1.437       .  A
C1557      H1564   1.072       .  S
C1558      C1559   1.420       .  A
C1559      C1560   1.409       .  A
C1559      N1566   1.446       .  S
C1560      C1561   1.421       .  A
C1560      H1565   1.050       .  S
C1561      C1562   1.441       .  A
C1562      N1563   1.438   1_455  S
N1563      H1567   1.046       .  S
N1563      H1568   1.039       .  S
N1566      H1569   1.043       .  S
N1566      H1570   1.046       .  S
C1571      C1572   1.446       .  A
C1571      C1576   1.441       .  A
C1571      H1578   1.082       .  S
C1572      C1573   1.417       .  A
C1573      C1574   1.408       .  A
C1573      N1580   1.434       .  S
C1574      C1575   1.399       .  A
C1574      H1579   1.035       .  S
C1575      C1576   1.421       .  A
C1576      N1577   1.438       .  S
N1577      H1581   1.046       .  S
N1577      H1582   1.046       .  S
N1580      H1583   1.040       .  S
N1580      H1584   1.045       .  S
C1585      C1586   1.434       .  A
C1585      C1590   1.428       .  A
C1585      H1592   1.060       .  S
C1586      C1587   1.425       .  A
C1587      C1588   1.436       .  A
C1587      N1594   1.435       .  S
C1588      C1589   1.402       .  A
C1588      H1593   1.053       .  S
C1589      C1590   1.419       .  A
C1590      N1591   1.432       .  S
N1591      H1595   1.045       .  S
N1591      H1596   1.045       .  S
N1594      H1597   1.041       .  S
N1594      H1598   1.045       .  S
C1599      C1600   1.434       .  A
C1599      C1604   1.478       .  A
C1599      H1606   1.075       .  S
C1600      C1601   1.386       .  A
C1601      C1602   1.348       .  A
C1601      N1608   1.388       .  S
C1602      C1603   1.377       .  A
C1602      H1607   1.079       .  S
C1603      C1604   1.432       .  A
C1604      N1605   1.412       .  S
N1605      H1609   1.041       .  S
N1605      H1610   1.040       .  S
N1608      H1611   1.008       .  S
N1608      H1612   1.001       .  S
C1613      C1614   1.433       .  A
C1613      C1618   1.418       .  A
C1613      H1620   1.032       .  S
C1614      C1615   1.429       .  A
C1615      C1616   1.432       .  A
C1615      N1622   1.435       .  S
C1616      C1617   1.442       .  A
C1616      H1621   1.063       .  S
C1617      C1618   1.408       .  A
C1618      N1619   1.440       .  S
N1619      H1623   1.044       .  S
N1619      H1624   1.041       .  S
N1622      H1625   1.040       .  S
N1622      H1626   1.045       .  S
C1627      C1628   1.411       .  A
C1627      C1632   1.425       .  A
C1627      H1634   1.080       .  S
C1628      C1629   1.434       .  A
C1629      C1630   1.414       .  A
C1629      N1636   1.423       .  S
C1630      C1631   1.391       .  A
C1630      H1635   1.076       .  S
C1631      C1632   1.431       .  A
C1632      N1633   1.434       .  S
N1633      H1637   1.045       .  S
N1633      H1638   1.043       .  S
N1636      H1639   1.040       .  S
N1636      H1640   1.047       .  S
