geometry optimzed in LAMMPS
_audit_creation_date              2020-11-30 
_audit_creation_method            'lammps2cif' 
_symmetry_space_group_name_H-M    'P1' 
_symmetry_Int_Tables_number       1 
_symmetry_cell_setting            triclinic 
loop_ 
_symmetry_equiv_pos_as_xyz 
  x,y,z 
_cell_length_a                    55.1155765 
_cell_length_b                    55.04837736910266 
_cell_length_c                    55.08518623455579 
_cell_angle_alpha                 89.96832535230283 
_cell_angle_beta                  90.02587599175267 
_cell_angle_gamma                 90.00242001400213 
loop_ 
_atom_site_label 
_atom_site_type_symbol 
_atom_site_fract_x 
_atom_site_fract_y 
_atom_site_fract_z 
_atom_site_charge 
O1          O  0.90219902  0.85973207  0.66373889    -0.85600
O2          O  0.87317643  0.89923311  0.65314196    -0.82700
C3          C  0.85586193  0.91121313  0.64408183     0.97800
O4          O  0.83608720  0.90078720  0.63877272    -0.82700
O5          O  0.84608989  0.87216359  0.59936715    -0.85400
C6          C  0.85558551  0.85534008  0.58714348     1.02300
O7          O  0.86184589  0.83558309  0.59721585    -0.78100
O8          O  0.90105457  0.84526117  0.62674335    -0.78300
C9          C  0.91283752  0.85458356  0.64403717     1.02300
O10         O  0.86220229  0.83860103  0.68993122    -0.85600
O11         O  0.83556784  0.87958679  0.68358302    -0.82700
C12         C  0.81468471  0.87086502  0.67980397     0.97800
O13         O  0.80966088  0.86101558  0.65981697    -0.82700
O14         O  0.81610179  0.83422902  0.61867816    -0.85300
C15         C  0.81977531  0.81343109  0.62769526     1.02300
O16         O  0.84013432  0.80831742  0.63674497    -0.78200
O17         O  0.88056146  0.81444225  0.66427914    -0.78300
C18         C  0.87126294  0.81820002  0.68498449     1.02300
Cr19       Cr  0.86750212  0.86822487  0.67049104     1.93700
Cr20       Cr  0.82911962  0.86615367  0.63022889     1.93200
Cr21       Cr  0.86984404  0.82795868  0.63204419     1.39100
O22         O  0.85562531  0.85422307  0.64409526    -1.23400
O23         O  0.66629749  0.90328765  0.85027455    -0.85600
O24         O  0.65674801  0.87433472  0.88990762    -0.82700
C25         C  0.64815975  0.85701164  0.90216561     0.97800
O26         O  0.64225456  0.83731408  0.89186229    -0.82700
O27         O  0.60255737  0.84654469  0.86301603    -0.85400
C28         C  0.58998173  0.85594698  0.84635263     1.02300
O29         O  0.59975467  0.86240630  0.82654463    -0.78100
O30         O  0.62931698  0.90162225  0.83570809    -0.78300
C31         C  0.64657721  0.91365033  0.84466572     1.02300
O32         O  0.69274171  0.86375299  0.82900211    -0.85600
O33         O  0.68729400  0.83677967  0.87025643    -0.82700
C34         C  0.68347125  0.81542533  0.86263247     0.97800
O35         O  0.66353636  0.81021706  0.85270828    -0.82700
O36         O  0.62246771  0.81629667  0.82559028    -0.85300
C37         C  0.63030977  0.82045200  0.80444291     1.02300
O38         O  0.63874845  0.84092885  0.79883664    -0.78200
O39         O  0.66650695  0.88149835  0.80487014    -0.78300
C40         C  0.68764017  0.87334014  0.80888086     1.02300
Cr41       Cr  0.67357286  0.86862547  0.85872803     1.93700
Cr42       Cr  0.63371791  0.82981064  0.85730139     1.93200
Cr43       Cr  0.63452900  0.87048055  0.81866557     1.39100
O44         O  0.64717061  0.85635999  0.84492237    -1.23400
O45         O  0.85815378  0.66857888  0.89765915    -0.85600
O46         O  0.89689183  0.66022310  0.86728919    -0.82700
C47         C  0.90884862  0.65191329  0.84963688     0.97800
O48         O  0.89811729  0.64677299  0.83000592    -0.82700
O49         O  0.87180124  0.60576940  0.84173448    -0.85400
C50         C  0.85540805  0.59283977  0.85112820     1.02300
O51         O  0.83515749  0.60214642  0.85688213    -0.78100
O52         O  0.84363151  0.63155641  0.89598681    -0.78300
C53         C  0.85296823  0.64867503  0.90793438     1.02300
O54         O  0.83451137  0.69517170  0.85949710    -0.85600
O55         O  0.87406130  0.69040947  0.83039390    -0.82700
C56         C  0.86513487  0.68605082  0.80963442     0.97800
O57         O  0.85666198  0.66536584  0.80468892    -0.82700
O58         O  0.83243975  0.62248113  0.81213502    -0.85300
C59         C  0.81106277  0.62990636  0.81587585     1.02300
O60         O  0.80568382  0.63990814  0.83570572    -0.78200
O61         O  0.81098193  0.66784616  0.87638616    -0.78300
C62         C  0.81446943  0.68931025  0.86882631     1.02300
Cr63       Cr  0.86493324  0.67642875  0.86281836     1.93700
Cr64       Cr  0.86381969  0.63617528  0.82430032     1.93200
Cr65       Cr  0.82592688  0.63640670  0.86516109     1.39100
O66         O  0.85153076  0.64970647  0.85083942    -1.23400
O67         O  0.60265292  0.64325169  0.66208435    -0.85600
O68         O  0.63273424  0.60407591  0.65199045    -0.82700
C69         C  0.65067992  0.59260197  0.64347922     0.97800
O70         O  0.67016309  0.60354667  0.63835780    -0.82700
O71         O  0.66151794  0.63331138  0.59879210    -0.85400
C72         C  0.65259472  0.65081901  0.58693201     1.02300
O73         O  0.64566622  0.66982024  0.59782136    -0.78100
O74         O  0.60470551  0.65839025  0.62535067    -0.78300
C75         C  0.59230194  0.64949365  0.64251023     1.02300
O76         O  0.64147317  0.66449703  0.68996755    -0.85600
O77         O  0.66851979  0.62338438  0.68422469    -0.82700
C78         C  0.68963232  0.63183200  0.68146358     0.97800
O79         O  0.69545162  0.64219513  0.66188545    -0.82700
O80         O  0.69039527  0.67051965  0.62153126    -0.85300
C81         C  0.68574315  0.69115199  0.63038232     1.02300
O82         O  0.66489901  0.69595817  0.63847907    -0.78200
O83         O  0.62301789  0.68800656  0.66383358    -0.78300
C84         C  0.63179311  0.68457571  0.68473434     1.02300
Cr85       Cr  0.63720998  0.63492920  0.66995513     1.93700
Cr86       Cr  0.67710771  0.63822971  0.63110704     1.93200
Cr87       Cr  0.63570748  0.67584786  0.63217244     1.39100
O88         O  0.64989996  0.64949595  0.64421026    -1.23400
O89         O  0.89938683  0.15839183  0.62863788    -0.85600
O90         O  0.86033449  0.16977896  0.59928572    -0.82700
C91         C  0.85557334  0.15009652  0.58846423     0.97800
O92         O  0.84614810  0.13262785  0.59993591    -0.82700
O93         O  0.83399909  0.10302399  0.63860023    -0.85400
C94         C  0.85334500  0.09234050  0.64484886     1.02300
O95         O  0.87046870  0.10412373  0.65441411    -0.78100
O96         O  0.90028457  0.14275394  0.66530799    -0.78300
C97         C  0.91114505  0.14912092  0.64602215     1.02300
O98         O  0.87990190  0.18800554  0.66614742    -0.85600
O99         O  0.83886401  0.19561533  0.63920867    -0.82700
C100        C  0.81880411  0.19076262  0.62932691     0.97800
O101        O  0.81545395  0.17032299  0.61940571    -0.82700
O102        O  0.80748015  0.14275411  0.65953733    -0.85300
C103        C  0.81179898  0.13303087  0.67978459     1.02300
O104        O  0.83260759  0.12432524  0.68426985    -0.78200
O105        O  0.86072283  0.16449313  0.69177930    -0.78300
C106        C  0.87098363  0.18433553  0.68691609     1.02300
Cr107      Cr  0.86846287  0.17587052  0.63409392     1.93700
Cr108      Cr  0.82786835  0.13798175  0.63046886     1.93200
Cr109      Cr  0.86520413  0.13498757  0.67185489     1.39100
O110        O  0.85394935  0.14948631  0.64542655    -1.23400
O111        O  0.87548851  0.39979138  0.83878626    -0.85600
O112        O  0.90364645  0.35972794  0.82880539    -0.82700
C113        C  0.91379570  0.35405528  0.84864931     0.97800
O114        O  0.90158860  0.34517551  0.86586475    -0.82700
O115        O  0.86192949  0.33467520  0.89447758    -0.85400
C116        C  0.85657633  0.35428317  0.90516154     1.02300
O117        O  0.84807610  0.37194573  0.89329746    -0.78100
O118        O  0.83876234  0.40164873  0.85407711    -0.78300
C119        C  0.85848786  0.41190485  0.84816551     1.02300
O120        O  0.83754940  0.38091345  0.80858321    -0.85600
O121        O  0.86351727  0.33930107  0.80213369    -0.82700
C122        C  0.87275401  0.31905749  0.80737769     0.97800
O123        O  0.88211575  0.31554415  0.82798656    -0.82700
O124        O  0.84087750  0.30936580  0.85402732    -0.85300
C125        C  0.82079161  0.31425551  0.86371752     1.02300
O126        O  0.81716392  0.33500613  0.87292475    -0.78200
O127        O  0.81123803  0.36300141  0.83240345    -0.78300
C128        C  0.81647955  0.37267278  0.81235519     1.02300
Cr129      Cr  0.86921230  0.36885889  0.82164248     1.93700
Cr130      Cr  0.87060779  0.32829735  0.85979637     1.93200
Cr131      Cr  0.83086357  0.36708007  0.86212696     1.39100
O132        O  0.85702605  0.35494342  0.84800562    -1.23400
O133        O  0.64272332  0.10533047  0.83128136    -0.85600
O134        O  0.60471575  0.13490510  0.84327407    -0.82700
C135        C  0.59311952  0.15205883  0.85295041     0.97800
O136        O  0.60390867  0.17151439  0.85882750    -0.82700
O137        O  0.63431389  0.15938934  0.89683624    -0.85400
C138        C  0.65207402  0.15018673  0.90799901     1.02300
O139        O  0.67140467  0.14510280  0.89664812    -0.78100
O140        O  0.65904363  0.10614101  0.86764625    -0.78300
C141        C  0.64894760  0.09456563  0.85064930     1.02300
O142        O  0.66378479  0.14490177  0.80423412    -0.85600
O143        O  0.62385033  0.17293993  0.81294560    -0.82700
C144        C  0.63336462  0.19349579  0.81688033     0.97800
O145        O  0.64356911  0.19778048  0.83689045    -0.82700
O146        O  0.67192217  0.18981822  0.87662761    -0.85300
C147        C  0.69213825  0.18613226  0.86635079     1.02300
O148        O  0.69611131  0.16626382  0.85573955    -0.78200
O149        O  0.68794814  0.12533067  0.82892982    -0.78300
C150        C  0.68358971  0.13421426  0.80819967     1.02300
Cr151      Cr  0.63489434  0.14033205  0.82495233     1.93700
Cr152      Cr  0.63913818  0.17760499  0.86618175     1.93200
Cr153      Cr  0.67659529  0.13682615  0.86153861     1.39100
O154        O  0.65007055  0.15146418  0.85097545    -1.23400
O155        O  0.66001823  0.37199320  0.60029291    -0.85600
O156        O  0.67206474  0.40057301  0.63958882    -0.82700
C157        C  0.65271724  0.41175774  0.64479341     0.97800
O158        O  0.63470622  0.40041339  0.65317838    -0.82700
O159        O  0.60403985  0.36261241  0.66510795    -0.85400
C160        C  0.59323009  0.35651213  0.64575909     1.02300
O161        O  0.60496062  0.34714328  0.62850181    -0.78100
O162        O  0.64341941  0.33577357  0.59878872    -0.78300
C163        C  0.64981228  0.35532834  0.58832602     1.02300
O164        O  0.68874083  0.33316421  0.61985032    -0.85600
O165        O  0.69684380  0.36010441  0.66076485    -0.82700
C166        C  0.69223533  0.37067156  0.68052047     0.97800
O167        O  0.67171838  0.38037784  0.68397892    -0.82700
O168        O  0.64353099  0.34081991  0.69149198    -0.85300
C169        C  0.63346730  0.32077548  0.68718137     1.02300
O170        O  0.62430572  0.31661788  0.66647882    -0.78200
O171        O  0.66428916  0.30822753  0.63873006    -0.78300
C172        C  0.68463158  0.31270560  0.62940261     1.02300
Cr173      Cr  0.67730682  0.36565603  0.63114887     1.93700
Cr174      Cr  0.63923512  0.36995459  0.67137370     1.93200
Cr175      Cr  0.63538765  0.32894598  0.63387895     1.39100
O176        O  0.65053571  0.35489884  0.64536816    -1.23400
O177        O  0.13242421  0.90071850  0.65530318    -0.85600
O178        O  0.10396154  0.86106083  0.66515838    -0.82700
C179        C  0.09360526  0.85700693  0.64505892     0.97800
O180        O  0.10555585  0.84834597  0.62758680    -0.82700
O181        O  0.14445380  0.83803824  0.59834257    -0.85400
C182        C  0.14981911  0.85791382  0.58816868     1.02300
O183        O  0.15960042  0.87476652  0.60021564    -0.78100
O184        O  0.16915366  0.90319311  0.64004263    -0.78300
C185        C  0.14917582  0.91304422  0.64577346     1.02300
O186        O  0.17036500  0.88138506  0.68516978    -0.85600
O187        O  0.14413336  0.83962475  0.69072809    -0.82700
C188        C  0.13422678  0.81969995  0.68541094     0.97800
O189        O  0.12514422  0.81650817  0.66454537    -0.82700
O190        O  0.16566780  0.81018246  0.63664616    -0.85300
C191        C  0.18583130  0.81534397  0.62716086     1.02300
O192        O  0.19012203  0.83671236  0.61974504    -0.78200
O193        O  0.19621163  0.86327475  0.66117409    -0.78300
C194        C  0.19114063  0.87243560  0.68153063     1.02300
Cr195      Cr  0.13861249  0.86965381  0.67198058     1.93700
Cr196      Cr  0.13625076  0.83033261  0.63272731     1.93200
Cr197      Cr  0.17677250  0.86862276  0.63136731     1.39100
O198        O  0.15054508  0.85626520  0.64525007    -1.23400
O199        O  0.33465848  0.86253241  0.90049349    -0.85600
O200        O  0.34548243  0.90018131  0.87004941    -0.82700
C201        C  0.35454262  0.91133008  0.85226872     0.97800
O202        O  0.35819604  0.90025292  0.83245363    -0.82700
O203        O  0.39693009  0.87122144  0.84338148    -0.85400
C204        C  0.40911488  0.85438357  0.85290270     1.02300
O205        O  0.39885722  0.83469515  0.85920957    -0.78100
O206        O  0.37109771  0.84672310  0.89875218    -0.78300
C207        C  0.35452343  0.85706745  0.91062840     1.02300
O208        O  0.30639606  0.84082790  0.86288251    -0.85600
O209        O  0.31304051  0.88013796  0.83368241    -0.82700
C210        C  0.31610696  0.86984210  0.81335732     0.97800
O211        O  0.33581166  0.85923378  0.80875859    -0.82700
O212        O  0.37683316  0.83215532  0.81503705    -0.85300
C213        C  0.36755771  0.81156156  0.81941751     1.02300
O214        O  0.35773784  0.80766462  0.83973356    -0.78200
O215        O  0.33177924  0.81645865  0.88147794    -0.78300
C216        C  0.31063729  0.82109031  0.87363039     1.02300
Cr217      Cr  0.32686292  0.86983087  0.86592446     1.93700
Cr218      Cr  0.36590334  0.86497161  0.82693328     1.93200
Cr219      Cr  0.36404411  0.82831982  0.86868230     1.39100
O220        O  0.35233809  0.85441203  0.85397644    -1.23400
O221        O  0.10220840  0.65987033  0.86773598    -0.85600
O222        O  0.14131225  0.66913183  0.89747062    -0.82700
C223        C  0.14827395  0.64947986  0.90733090     0.97800
O224        O  0.15818586  0.63304214  0.89480050    -0.82700
O225        O  0.16867778  0.60566275  0.85405509    -0.85400
C226        C  0.14907382  0.59472422  0.84906666     1.02300
O227        O  0.13110996  0.60646553  0.84110261    -0.78100
O228        O  0.10115006  0.64541978  0.83075321    -0.78300
C229        C  0.09041023  0.65091869  0.85028886     1.02300
O230        O  0.12259382  0.69141575  0.83079697    -0.85600
O231        O  0.16256494  0.69770807  0.85885914    -0.82700
C232        C  0.18249173  0.69322603  0.86908140     0.97800
O233        O  0.18703370  0.67202630  0.87659101    -0.82700
O234        O  0.19362316  0.64687806  0.83394323    -0.85300
C235        C  0.18872321  0.63696162  0.81391016     1.02300
O236        O  0.16816928  0.62728114  0.81051192    -0.78200
O237        O  0.14009399  0.66731651  0.80431499    -0.78300
C238        C  0.13091079  0.68752865  0.80969851     1.02300
Cr239      Cr  0.13325210  0.67747530  0.86281916     1.93700
Cr240      Cr  0.17473160  0.64023234  0.86374947     1.93200
Cr241      Cr  0.13595798  0.63765001  0.82384744     1.39100
O242        O  0.14782291  0.65173645  0.85028375    -1.23400
O243        O  0.37215255  0.60411454  0.65507512    -0.85600
O244        O  0.39979916  0.64470731  0.66555494    -0.82700
C245        C  0.41007562  0.65144519  0.64608631     0.97800
O246        O  0.39766934  0.66053475  0.62914118    -0.82700
O247        O  0.35811577  0.66810143  0.59973299    -0.85400
C248        C  0.35313129  0.64810664  0.58940486     1.02300
O249        O  0.34414801  0.63075467  0.60134972    -0.78100
O250        O  0.33521955  0.60116950  0.64053850    -0.78300
C251        C  0.35526367  0.59147096  0.64617365     1.02300
O252        O  0.33387915  0.62206355  0.68569721    -0.85600
O253        O  0.35913444  0.66383336  0.69264192    -0.82700
C254        C  0.36779960  0.68453913  0.68830367     0.97800
O255        O  0.37579375  0.68949219  0.66726730    -0.82700
O256        O  0.33485401  0.69380084  0.63914369    -0.85300
C257        C  0.31515253  0.68811453  0.62901292     1.02300
O258        O  0.31202053  0.66687944  0.62086959    -0.78200
O259        O  0.30713653  0.63947680  0.66192060    -0.78300
C260        C  0.31267303  0.63006542  0.68201172     1.02300
Cr261      Cr  0.36535851  0.63477292  0.67256756     1.93700
Cr262      Cr  0.36556225  0.67579580  0.63471165     1.93200
Cr263      Cr  0.32676695  0.63556122  0.63227943     1.39100
O264        O  0.35269890  0.64862058  0.64637861    -1.23400
O265        O  0.15998837  0.10562495  0.62806257    -0.85600
O266        O  0.16964959  0.14509190  0.59906014    -0.82700
C267        C  0.14975511  0.14979824  0.58856468     0.97800
O268        O  0.13212545  0.15806268  0.60058134    -0.82700
O269        O  0.10304312  0.16916857  0.63987034    -0.85400
C270        C  0.09277584  0.14990993  0.64704181     1.02300
O271        O  0.10501754  0.13302787  0.65646164    -0.78100
O272        O  0.14443643  0.10368262  0.66477007    -0.78300
C273        C  0.15032756  0.09354390  0.64494200     1.02300
O274        O  0.19038600  0.12499003  0.66548916    -0.85600
O275        O  0.19564892  0.16676607  0.63871355    -0.82700
C276        C  0.19029584  0.18645790  0.62832545     0.97800
O277        O  0.16938632  0.18951416  0.61935532    -0.82700
O278        O  0.14256830  0.19644204  0.66008188    -0.85300
C279        C  0.13361084  0.19197791  0.68061956     1.02300
O280        O  0.12601597  0.17085181  0.68571634    -0.78200
O281        O  0.16670632  0.14276285  0.69187653    -0.78300
C282        C  0.18653735  0.13257893  0.68679516     1.02300
Cr283      Cr  0.17678240  0.13670540  0.63376320     1.93700
Cr284      Cr  0.13766806  0.17614462  0.63112314     1.93200
Cr285      Cr  0.13664915  0.13848577  0.67253717     1.39100
O286        O  0.15020062  0.15031312  0.64578864    -1.23400
O287        O  0.37264738  0.34613992  0.59990735    -0.85600
O288        O  0.40159377  0.33449287  0.63904897    -0.82700
C289        C  0.41189081  0.35396052  0.64581603     0.97800
O290        O  0.39964811  0.37097035  0.65497984    -0.82700
O291        O  0.36014266  0.39954867  0.66598272    -0.85400
C292        C  0.35437355  0.41041170  0.64652263     1.02300
O293        O  0.34558758  0.39877994  0.62891203    -0.78100
O294        O  0.33554223  0.36046326  0.59850860    -0.78300
C295        C  0.35521854  0.35490962  0.58795171     1.02300
O296        O  0.33479202  0.31516473  0.61812469    -0.85600
O297        O  0.36121548  0.30728271  0.65886499    -0.82700
C298        C  0.37087552  0.31145937  0.67911617     0.97800
O299        O  0.38021602  0.33200286  0.68340382    -0.82700
O300        O  0.33929113  0.35832234  0.69083278    -0.85300
C301        C  0.31911475  0.36798013  0.68635395     1.02300
O302        O  0.31526073  0.37788951  0.66596700    -0.78200
O303        O  0.30874869  0.33826543  0.63733958    -0.78300
C304        C  0.31386191  0.31862729  0.62691232     1.02300
Cr305      Cr  0.36678763  0.32775953  0.63008435     1.93700
Cr306      Cr  0.36874569  0.36451134  0.67172658     1.93200
Cr307      Cr  0.32836080  0.36784971  0.63347752     1.39100
O308        O  0.35476865  0.35353629  0.64494492    -1.23400
O309        O  0.40294968  0.14490634  0.83106696    -0.85600
O310        O  0.37630498  0.10416950  0.84038349    -0.82700
C311        C  0.36036976  0.09145173  0.85066510     0.97800
O312        O  0.34036496  0.10069507  0.85737141    -0.82700
O313        O  0.34769055  0.13231219  0.89512064    -0.85400
C314        C  0.35480210  0.15077055  0.90655849     1.02300
O315        O  0.35895367  0.17035920  0.89528902    -0.78100
O316        O  0.39958693  0.16020706  0.86777779    -0.78300
C317        C  0.41242686  0.15118432  0.85113077     1.02300
O318        O  0.36185791  0.16352380  0.80353502    -0.85600
O319        O  0.33756259  0.12103023  0.80976809    -0.82700
C320        C  0.31592506  0.12746104  0.81405131     0.97800
O321        O  0.31053031  0.13706027  0.83407309    -0.82700
O322        O  0.31487532  0.16743593  0.87290686    -0.85300
C323        C  0.31805700  0.18837454  0.86366035     1.02300
O324        O  0.33800449  0.19364120  0.85381836    -0.78200
O325        O  0.38029965  0.18813728  0.82846402    -0.78300
C326        C  0.37118504  0.18388252  0.80785621     1.02300
Cr327      Cr  0.36874985  0.13454898  0.82323120     1.93700
Cr328      Cr  0.33036752  0.13529057  0.86380562     1.93200
Cr329      Cr  0.36827030  0.17587051  0.86053365     1.39100
O330        O  0.35587677  0.14832446  0.84932042    -1.23400
O331        O  0.14520060  0.33538252  0.89614969    -0.85600
O332        O  0.10633610  0.34607736  0.86680138    -0.82700
C333        C  0.09441111  0.35563932  0.84976973     0.97800
O334        O  0.10485248  0.36202355  0.83031596    -0.82700
O335        O  0.13351337  0.40119755  0.84182389    -0.85400
C336        C  0.15075181  0.41312162  0.85095892     1.02300
O337        O  0.17032033  0.40247405  0.85668719    -0.78100
O338        O  0.15917927  0.37265532  0.89531693    -0.78300
C339        C  0.15007384  0.35514033  0.90691501     1.02300
O340        O  0.16707290  0.30960925  0.85618081    -0.85600
O341        O  0.12620817  0.31687951  0.82856335    -0.82700
C342        C  0.13465907  0.32148532  0.80769220     0.97800
O343        O  0.14473882  0.34158303  0.80354983    -0.82700
O344        O  0.17185698  0.38206726  0.81155018    -0.85300
C345        C  0.19242790  0.37261952  0.81548135     1.02300
O346        O  0.19705137  0.36294833  0.83563265    -0.78200
O347        O  0.19044854  0.33530307  0.87560763    -0.78300
C348        C  0.18700833  0.31460015  0.86620659     1.02300
Cr349      Cr  0.13727547  0.32905226  0.86111656     1.93700
Cr350      Cr  0.13957155  0.37061619  0.82388482     1.93200
Cr351      Cr  0.17719858  0.36757064  0.86477486     1.39100
O352        O  0.15124281  0.35580481  0.84998780    -1.23400
O353        O  0.83491596  0.86019416  0.39626318    -0.85600
O354        O  0.84381098  0.89878681  0.36622605    -0.82700
C355        C  0.85294508  0.91059000  0.34893629     0.97800
O356        O  0.85968777  0.89983827  0.32972606    -0.82700
O357        O  0.89863124  0.86999010  0.34036850    -0.85400
C358        C  0.91056184  0.85255114  0.34922474     1.02300
O359        O  0.89991146  0.83292395  0.35475716    -0.78100
O360        O  0.87167327  0.84484134  0.39433486    -0.78300
C361        C  0.85480000  0.85451374  0.40641392     1.02300
O362        O  0.80769210  0.83807568  0.35734262    -0.85600
O363        O  0.81345566  0.87794328  0.32908854    -0.82700
C364        C  0.81767777  0.86915549  0.30826776     0.97800
O365        O  0.83802094  0.85987694  0.30362129    -0.82700
O366        O  0.87806983  0.83202712  0.31050563    -0.85300
C367        C  0.86837260  0.81153568  0.31454194     1.02300
O368        O  0.85881566  0.80721330  0.33485141    -0.78200
O369        O  0.83327842  0.81466479  0.37660732    -0.78300
C370        C  0.81233643  0.81851516  0.36810687     1.02300
Cr371      Cr  0.82708057  0.86764129  0.36139299     1.93700
Cr372      Cr  0.86757569  0.86469620  0.32315678     1.93200
Cr373      Cr  0.86511177  0.82698941  0.36400593     1.39100
O374        O  0.85338202  0.85333704  0.34965899    -1.23400
O375        O  0.84297920  0.63019828  0.10054947    -0.85600
O376        O  0.83299792  0.59995405  0.13905361    -0.82700
C377        C  0.85251891  0.58943412  0.14514553     0.97800
O378        O  0.86980615  0.60137375  0.15427311    -0.82700
O379        O  0.89915082  0.64048368  0.16552617    -0.85400
C380        C  0.90974596  0.64717357  0.14624013     1.02300
O381        O  0.89770105  0.65615889  0.12893606    -0.78100
O382        O  0.85823883  0.66695810  0.09974979    -0.78300
C383        C  0.85229560  0.64755720  0.08890551     1.02300
O384        O  0.81273471  0.66741333  0.12155654    -0.85600
O385        O  0.80606423  0.63856254  0.16134849    -0.82700
C386        C  0.81126393  0.62824296  0.18107085     0.97800
O387        O  0.83238643  0.62013987  0.18481810    -0.82700
O388        O  0.85899182  0.66121570  0.19210667    -0.85300
C389        C  0.86870873  0.68143949  0.18764743     1.02300
O390        O  0.87788395  0.68548588  0.16700170    -0.78200
O391        O  0.83715923  0.69279598  0.14001350    -0.78300
C392        C  0.81687471  0.68814571  0.13061903     1.02300
Cr393      Cr  0.82586082  0.63492847  0.13168642     1.93700
Cr394      Cr  0.86425664  0.63194764  0.17207967     1.93200
Cr395      Cr  0.86659692  0.67315623  0.13468339     1.39100
O396        O  0.85233222  0.64653794  0.14600867    -1.23400
O397        O  0.60591741  0.84567785  0.12260187    -0.85600
O398        O  0.64601107  0.83641933  0.09379503    -0.82700
C399        C  0.65182624  0.85617555  0.08353784     0.97800
O400        O  0.66087888  0.87330290  0.09574211    -0.82700
O401        O  0.67003302  0.90203202  0.13560487    -0.85400
C402        C  0.65035946  0.91211721  0.14187023     1.02300
O403        O  0.63325494  0.89978941  0.15079647    -0.78100
O404        O  0.60451275  0.85971734  0.15980710    -0.78300
C405        C  0.59387289  0.85398480  0.14021619     1.02300
O406        O  0.62591290  0.81495762  0.15995677    -0.85600
O407        O  0.66684929  0.80957429  0.13343881    -0.82700
C408        C  0.68731543  0.81481672  0.12483249     0.97800
O409        O  0.69129508  0.83564112  0.11598092    -0.82700
O410        O  0.69681699  0.86229757  0.15682591    -0.85300
C411        C  0.69170180  0.87130028  0.17717940     1.02300
O412        O  0.67078033  0.87991827  0.18099604    -0.78200
O413        O  0.64418238  0.83849217  0.18626213    -0.78300
C414        C  0.63470721  0.81839101  0.18089089     1.02300
Cr415      Cr  0.63725262  0.82882746  0.12825488     1.93700
Cr416      Cr  0.67759592  0.86747317  0.12705421     1.93200
Cr417      Cr  0.63901683  0.86848054  0.16730538     1.39100
O418        O  0.65111623  0.85513941  0.14067080    -1.23400
O419        O  0.62844375  0.60581921  0.33980132    -0.85600
O420        O  0.59984345  0.64592064  0.32991374    -0.82700
C421        C  0.59032852  0.65286088  0.34964876     0.97800
O422        O  0.60295469  0.66255200  0.36605565    -0.82700
O423        O  0.64336860  0.67252555  0.39383256    -0.85400
C424        C  0.64872610  0.65299440  0.40481785     1.02300
O425        O  0.65628314  0.63489345  0.39296902    -0.78100
O426        O  0.66556033  0.60460784  0.35396528    -0.78300
C427        C  0.64606498  0.59388534  0.34832364     1.02300
O428        O  0.66537819  0.62447964  0.30829385    -0.85600
O429        O  0.63890760  0.66575996  0.30117824    -0.82700
C430        C  0.63034931  0.68644417  0.30589469     0.97800
O431        O  0.62215235  0.69098929  0.32685851    -0.82700
O432        O  0.66387589  0.69703124  0.35256791    -0.85300
C433        C  0.68360521  0.69206025  0.36289322     1.02300
O434        O  0.68714042  0.67118284  0.37178251    -0.78200
O435        O  0.69225234  0.64269266  0.33134134    -0.78300
C436        C  0.68671565  0.63217531  0.31177060     1.02300
Cr437      Cr  0.63400518  0.63669254  0.32187396     1.93700
Cr438      Cr  0.63404363  0.67855962  0.35897197     1.93200
Cr439      Cr  0.67318741  0.63922439  0.36147680     1.39100
O440        O  0.64692924  0.65134427  0.34752472    -1.23400
O441        O  0.63430454  0.15571198  0.10063215    -0.85600
O442        O  0.60364314  0.16593377  0.13856760    -0.82700
C443        C  0.59417774  0.14605609  0.14514751     0.97800
O444        O  0.60669560  0.12989802  0.15536775    -0.82700
O445        O  0.64693623  0.10310962  0.16666605    -0.85400
C446        C  0.65303535  0.09286345  0.14696280     1.02300
O447        O  0.66212662  0.10501166  0.12988139    -0.78100
O448        O  0.67222579  0.14395392  0.10049018    -0.78300
C449        C  0.65251201  0.14778273  0.08928360     1.02300
O450        O  0.66980649  0.18870543  0.12052461    -0.85600
O451        O  0.64113680  0.19524211  0.15997234    -0.82700
C452        C  0.63146842  0.19070174  0.18018081     0.97800
O453        O  0.62364937  0.16956974  0.18477403    -0.82700
O454        O  0.66560675  0.14465880  0.19298243    -0.85300
C455        C  0.68590301  0.13500694  0.18905660     1.02300
O456        O  0.69042721  0.12581440  0.16847405    -0.78200
O457        O  0.69596676  0.16661279  0.14089714    -0.78300
C458        C  0.69050590  0.18597901  0.13008759     1.02300
Cr459      Cr  0.63807235  0.17447036  0.13104432     1.93700
Cr460      Cr  0.63680909  0.13763634  0.17291181     1.93200
Cr461      Cr  0.67810068  0.13630035  0.13572058     1.39100
O462        O  0.65085280  0.14940204  0.14648690    -1.23400
O463        O  0.60710387  0.35980950  0.32967108    -0.85600
O464        O  0.63540317  0.39970232  0.33960795    -0.82700
C465        C  0.65228693  0.41215057  0.34872710     0.97800
O466        O  0.67190783  0.40202227  0.35521396    -0.82700
O467        O  0.66161581  0.37305715  0.39488796    -0.85400
C468        C  0.65255768  0.35581402  0.40695814     1.02300
O469        O  0.64752434  0.33586488  0.39661538    -0.78100
O470        O  0.60839767  0.34516741  0.36673613    -0.78300
C471        C  0.59650058  0.35389553  0.34920848     1.02300
O472        O  0.64739342  0.33866332  0.30400447    -0.85600
O473        O  0.67400771  0.38032035  0.31020779    -0.82700
C474        C  0.69516193  0.37259034  0.31481348     0.97800
O475        O  0.69960026  0.36266536  0.33493483    -0.82700
O476        O  0.69289232  0.33560829  0.37584864    -0.85300
C477        C  0.68962670  0.31461212  0.36705338     1.02300
O478        O  0.66967708  0.30925532  0.35724483    -0.78200
O479        O  0.62865158  0.31485736  0.32970420    -0.78300
C480        C  0.63709001  0.31877407  0.30870817     1.02300
Cr481      Cr  0.64184600  0.36853988  0.32300617     1.93700
Cr482      Cr  0.67940617  0.36743171  0.36414150     1.93200
Cr483      Cr  0.63968165  0.32840252  0.36173544     1.39100
O484        O  0.65350318  0.35492908  0.34974595    -1.23400
O485        O  0.83619030  0.10361156  0.35872947    -0.85600
O486        O  0.85038844  0.13355447  0.39648312    -0.82700
C487        C  0.85994511  0.15102171  0.40781260     0.97800
O488        O  0.86506684  0.17055416  0.39676634    -0.82700
O489        O  0.90267993  0.15775566  0.36663704    -0.85400
C490        C  0.91392990  0.14749659  0.34955327     1.02300
O491        O  0.90282495  0.14137336  0.33032676    -0.78100
O492        O  0.87242685  0.10368977  0.34247594    -0.78300
C493        C  0.85495479  0.09228227  0.35180134     1.02300
O494        O  0.81017374  0.14410537  0.33818914    -0.85600
O495        O  0.81998534  0.17177056  0.37768710    -0.82700
C496        C  0.82345328  0.19205780  0.36745247     0.97800
O497        O  0.84320994  0.19645430  0.35684323    -0.82700
O498        O  0.88307310  0.18749342  0.32856062    -0.85300
C499        C  0.87353700  0.18316373  0.30811968     1.02300
O500        O  0.86283872  0.16335652  0.30438817    -0.78200
O501        O  0.83420145  0.12435187  0.31344831    -0.78300
C502        C  0.81386696  0.13409683  0.31799307     1.02300
Cr503      Cr  0.83122653  0.13896918  0.36668346     1.93700
Cr504      Cr  0.87237229  0.17603803  0.36144736     1.93200
Cr505      Cr  0.86738436  0.13435801  0.32471676     1.39100
O506        O  0.85707789  0.14971485  0.35097105    -1.23400
O507        O  0.84704581  0.39642485  0.12588558    -0.85600
O508        O  0.83673564  0.35752635  0.09665802    -0.82700
C509        C  0.85638392  0.35142055  0.08629955     0.97800
O510        O  0.87355903  0.34225772  0.09834509    -0.82700
O511        O  0.90219449  0.33049447  0.13782108    -0.85400
C512        C  0.91300902  0.34998444  0.14340932     1.02300
O513        O  0.90119781  0.36775532  0.15156567    -0.78100
O514        O  0.86298260  0.39785520  0.16237694    -0.78300
C515        C  0.85629627  0.40835443  0.14302661     1.02300
O516        O  0.81709369  0.37734592  0.16399079    -0.85600
O517        O  0.80999147  0.33643591  0.13656211    -0.82700
C518        C  0.81466662  0.31662403  0.12621965     0.97800
O519        O  0.83530613  0.31287327  0.11702644    -0.82700
O520        O  0.86153383  0.30514163  0.15818322    -0.85300
C521        C  0.87164606  0.30961696  0.17816510     1.02300
O522        O  0.88100597  0.33028282  0.18206323    -0.78200
O523        O  0.84140237  0.35886307  0.18944321    -0.78300
C524        C  0.82173611  0.36966548  0.18519557     1.02300
Cr525      Cr  0.82971731  0.36578918  0.13159130     1.93700
Cr526      Cr  0.86736106  0.32479757  0.12892146     1.93200
Cr527      Cr  0.87059288  0.36286072  0.16929856     1.39100
O528        O  0.85595296  0.35129952  0.14319007    -1.23400
O529        O  0.10419436  0.16741808  0.35642319    -0.85600
O530        O  0.13409039  0.15868407  0.39542642    -0.82700
C531        C  0.15167150  0.15017113  0.40735302     0.97800
O532        O  0.17155041  0.14524759  0.39687975    -0.82700
O533        O  0.16387449  0.10592714  0.36705820    -0.85400
C534        C  0.15514877  0.09367056  0.34984318     1.02300
O535        O  0.14864065  0.10399257  0.33035371    -0.78100
O536        O  0.10773866  0.13075079  0.34117141    -0.78300
C537        C  0.09482327  0.14733101  0.35022000     1.02300
O538        O  0.14228386  0.19638917  0.33510641    -0.85600
O539        O  0.16986346  0.19141370  0.37583132    -0.82700
C540        C  0.19114550  0.18833164  0.36779296     0.97800
O541        O  0.19711098  0.16864211  0.35786883    -0.82700
O542        O  0.19260143  0.12827646  0.32944482    -0.85300
C543        C  0.18780113  0.13657319  0.30851337     1.02300
O544        O  0.16713570  0.14517546  0.30400656    -0.78200
O545        O  0.12493934  0.16964222  0.31138643    -0.78300
C546        C  0.13298997  0.19081835  0.31499277     1.02300
Cr547      Cr  0.13857310  0.17641023  0.36460628     1.93700
Cr548      Cr  0.17907677  0.13800702  0.36193693     1.93200
Cr549      Cr  0.13821818  0.13828635  0.32390903     1.39100
O550        O  0.15188194  0.15079166  0.35028991    -1.23400
O551        O  0.10515043  0.33260476  0.14070504    -0.85600
O552        O  0.13221980  0.34376785  0.10025174    -0.82700
C553        C  0.14820038  0.35435499  0.08774298     0.97800
O554        O  0.16774994  0.36164420  0.09741029    -0.82700
O555        O  0.15747048  0.39971631  0.12795987    -0.85400
C556        C  0.14876242  0.41098758  0.14586232     1.02300
O557        O  0.14460659  0.39988916  0.16550319    -0.78100
O558        O  0.10581886  0.36969403  0.15525779    -0.78300
C559        C  0.09417570  0.35193020  0.14661974     1.02300
O560        O  0.14633361  0.30731686  0.16046067    -0.85600
O561        O  0.17162983  0.31501934  0.11824977    -0.82700
C562        C  0.19271113  0.31986827  0.12587725     0.97800
O563        O  0.19712248  0.34024724  0.13529323    -0.82700
O564        O  0.19047663  0.37980024  0.16399691    -0.85300
C565        C  0.18750240  0.37085071  0.18500252     1.02300
O566        O  0.16774644  0.36069687  0.19054065    -0.78200
O567        O  0.12725467  0.33259054  0.18444602    -0.78300
C568        C  0.13671094  0.31206171  0.18064969     1.02300
Cr569      Cr  0.13968898  0.32685653  0.13101106     1.93700
Cr570      Cr  0.17618847  0.36919093  0.13206397     1.93200
Cr571      Cr  0.13740849  0.36490674  0.17173781     1.39100
O572        O  0.15104050  0.35372979  0.14479854    -1.23400
O573        O  0.37410997  0.10514050  0.15354010    -0.85600
O574        O  0.40342760  0.14396049  0.16465291    -0.82700
C575        C  0.41407270  0.14991808  0.14516578     0.97800
O576        O  0.40239492  0.15964654  0.12801756    -0.82700
O577        O  0.36336805  0.17091215  0.09876831    -0.85400
C578        C  0.35805738  0.15135763  0.08788890     1.02300
O579        O  0.34937608  0.13366747  0.09956017    -0.78100
O580        O  0.33734425  0.10446682  0.13853670    -0.78300
C581        C  0.35668542  0.09350048  0.14439065     1.02300
O582        O  0.33596951  0.12528978  0.18346958    -0.85600
O583        O  0.36390627  0.16534613  0.19105037    -0.82700
C584        C  0.37440654  0.18517486  0.18669337     0.97800
O585        O  0.38306217  0.18936120  0.16586812    -0.82700
O586        O  0.34201001  0.19680342  0.13865169    -0.85300
C587        C  0.32232824  0.19241729  0.12781438     1.02300
O588        O  0.31877422  0.17171463  0.11845995    -0.78200
O589        O  0.31104385  0.14447646  0.15910439    -0.78300
C590        C  0.31535616  0.13459234  0.17927156     1.02300
Cr591      Cr  0.36855407  0.13601791  0.17112008     1.93700
Cr592      Cr  0.37163580  0.17715429  0.13361796     1.93200
Cr593      Cr  0.33118471  0.13933030  0.13000456     1.39100
O594        O  0.35726007  0.15073026  0.14485364    -1.23400
O595        O  0.40466571  0.33597184  0.35488231    -0.85600
O596        O  0.37537464  0.34577667  0.39444709    -0.82700
C597        C  0.35756013  0.35370402  0.40640345     0.97800
O598        O  0.33808439  0.35939162  0.39559570    -0.82700
O599        O  0.34850878  0.39958902  0.36735070    -0.85400
C600        C  0.35797732  0.41190449  0.35049061     1.02300
O601        O  0.36359936  0.40193090  0.33051921    -0.78100
O602        O  0.40306880  0.37250909  0.33903913    -0.78300
C603        C  0.41513254  0.35533547  0.34821821     1.02300
O604        O  0.36519339  0.30941172  0.33375309    -0.85600
O605        O  0.33795317  0.31525786  0.37427862    -0.82700
C606        C  0.31708108  0.31885684  0.36535136     0.97800
O607        O  0.31216254  0.33887470  0.35537398    -0.82700
O608        O  0.31803029  0.38081297  0.32933628    -0.85300
C609        C  0.32157095  0.37255814  0.30821016     1.02300
O610        O  0.34163451  0.36292514  0.30296804    -0.78200
O611        O  0.38250938  0.33530639  0.30900302    -0.78300
C612        C  0.37453567  0.31422894  0.31349569     1.02300
Cr613      Cr  0.36997799  0.32878808  0.36322385     1.93700
Cr614      Cr  0.33134286  0.36866047  0.36104111     1.93200
Cr615      Cr  0.37159276  0.36728196  0.32252498     1.39100
O616        O  0.35785207  0.35506214  0.34902640    -1.23400
O617        O  0.10356589  0.63225110  0.15650145    -0.85600
O618        O  0.14273308  0.60281150  0.16686773    -0.82700
C619        C  0.14726696  0.59193774  0.14714755     0.97800
O620        O  0.15602925  0.60347576  0.12941980    -0.82700
O621        O  0.16737192  0.64185354  0.09932236    -0.85400
C622        C  0.14799085  0.64856070  0.08892780     1.02300
O623        O  0.13128586  0.65851438  0.10104228    -0.78100
O624        O  0.10232814  0.66885447  0.14072130    -0.78300
C625        C  0.09162622  0.64947170  0.14722111     1.02300
O626        O  0.12378298  0.67006198  0.18602990    -0.85600
O627        O  0.16483379  0.64242773  0.19240679    -0.82700
C628        C  0.18463200  0.63222611  0.18719161     0.97800
O629        O  0.18786508  0.62303680  0.16637023    -0.82700
O630        O  0.19524183  0.66299611  0.13829622    -0.85300
C631        C  0.19083857  0.68334401  0.12878849     1.02300
O632        O  0.16976454  0.68802775  0.12082682    -0.78200
O633        O  0.14288713  0.69504317  0.16185194    -0.78300
C634        C  0.13293181  0.69072565  0.18197868     1.02300
Cr635      Cr  0.13483803  0.63772814  0.17325442     1.93700
Cr636      Cr  0.17451620  0.63396628  0.13423522     1.93200
Cr637      Cr  0.13735339  0.67549969  0.13222223     1.39100
O638        O  0.14879315  0.64898898  0.14641781    -1.23400
O639        O  0.34561081  0.60469974  0.36864398    -0.85600
O640        O  0.33618413  0.64316481  0.39887522    -0.82700
C641        C  0.35604796  0.64943638  0.40871760     0.97800
O642        O  0.37232598  0.65977147  0.39640075    -0.82700
O643        O  0.39951279  0.67104017  0.35623100    -0.85400
C644        C  0.41010608  0.65136065  0.35086898     1.02300
O645        O  0.39829636  0.63381796  0.34212050    -0.78100
O646        O  0.35966331  0.60392147  0.33146245    -0.78300
C647        C  0.35442982  0.59305958  0.35104647     1.02300
O648        O  0.31402887  0.62491383  0.33205221    -0.85600
O649        O  0.30781488  0.66484354  0.36019260    -0.82700
C650        C  0.31224466  0.68493069  0.37011812     0.97800
O651        O  0.33312317  0.68917456  0.37860450    -0.82700
O652        O  0.35833732  0.69639476  0.33645061    -0.85300
C653        C  0.36842282  0.69211450  0.31639680     1.02300
O654        O  0.37790503  0.67155728  0.31242900    -0.78200
O655        O  0.33739648  0.64357537  0.30578939    -0.78300
C656        C  0.31750005  0.63358301  0.31101252     1.02300
Cr657      Cr  0.32788146  0.63553855  0.36412188     1.93700
Cr658      Cr  0.36499459  0.67700243  0.36581353     1.93200
Cr659      Cr  0.36729331  0.63902987  0.32505579     1.39100
O660        O  0.35348779  0.65035779  0.35180409    -1.23400
O661        O  0.14398795  0.83502854  0.39701654    -0.85600
O662        O  0.10403762  0.84573876  0.36924175    -0.82700
C663        C  0.09164304  0.85582665  0.35287538     0.97800
O664        O  0.10153827  0.86274439  0.33326458    -0.82700
O665        O  0.13225900  0.90091601  0.34306156    -0.85400
C666        C  0.15006784  0.91243659  0.35164892     1.02300
O667        O  0.16959509  0.90148982  0.35673635    -0.78100
O668        O  0.15874407  0.87199664  0.39550160    -0.78300
C669        C  0.14954107  0.85479149  0.40747627     1.02300
O670        O  0.16400274  0.80898657  0.35609669    -0.85600
O671        O  0.12218503  0.81629723  0.33021924    -0.82700
C672        C  0.13032094  0.82071535  0.30919847     0.97800
O673        O  0.13990736  0.84096075  0.30464758    -0.82700
O674        O  0.16841784  0.88059710  0.31106758    -0.85300
C675        C  0.18933536  0.87163899  0.31443270     1.02300
O676        O  0.19459314  0.86159785  0.33434438    -0.78200
O677        O  0.18808464  0.83392178  0.37540547    -0.78300
C678        C  0.18391810  0.81316790  0.36648687     1.02300
Cr679      Cr  0.13469131  0.82863049  0.36227536     1.93700
Cr680      Cr  0.13636444  0.87017648  0.32504957     1.93200
Cr681      Cr  0.17562296  0.86640004  0.36442406     1.39100
O682        O  0.14875138  0.85519337  0.35064766    -1.23400
O683        O  0.40192870  0.86108167  0.16497374    -0.85600
O684        O  0.37223872  0.90000293  0.15377546    -0.82700
C685        C  0.35439786  0.91181307  0.14567196     0.97800
O686        O  0.33458488  0.90098676  0.14114372    -0.82700
O687        O  0.34466068  0.87142760  0.10236450    -0.85400
C688        C  0.35423377  0.85452484  0.09034378     1.02300
O689        O  0.36047103  0.83478138  0.10037332    -0.78100
O690        O  0.39977873  0.84510219  0.12867447    -0.78300
C691        C  0.41215588  0.85439470  0.14546778     1.02300
O692        O  0.36264561  0.84085453  0.19276284    -0.85600
O693        O  0.33510517  0.88096643  0.18577008    -0.82700
C694        C  0.31421618  0.87179111  0.18272746     0.97800
O695        O  0.30903686  0.86110296  0.16320190    -0.82700
O696        O  0.31505216  0.83342098  0.12221277    -0.85300
C697        C  0.31941872  0.81241408  0.13055005     1.02300
O698        O  0.33951936  0.80809212  0.14055222    -0.78200
O699        O  0.38046956  0.81579556  0.16754610    -0.78300
C700        C  0.37210060  0.82053349  0.18842738     1.02300
Cr701      Cr  0.36715874  0.86963455  0.17228444     1.93700
Cr702      Cr  0.32792889  0.86587743  0.13323684     1.93200
Cr703      Cr  0.36892930  0.82802550  0.13516058     1.39100
O704        O  0.35476208  0.85452708  0.14679670    -1.23400
C705        C  0.29252230  0.87306919  0.26960973    -0.18100
C706        C  0.27505949  0.87255329  0.28802504    -0.20300
C707        C  0.25024651  0.87305418  0.28230779     0.20400
C708        C  0.24293563  0.87414027  0.25777020    -0.03200
C709        C  0.26056653  0.87428776  0.23915772    -0.06300
C710        C  0.28547783  0.87386306  0.24514197     0.20600
C711        C  0.25326544  0.87459049  0.21459500     0.18800
C712        C  0.22844709  0.87522804  0.20887718    -0.17800
C713        C  0.21098535  0.87547040  0.22732768    -0.20000
C714        C  0.21802831  0.87483859  0.25182043     0.20300
C715        C  0.20062924  0.87462050  0.27045358    -0.33000
C716        C  0.20778902  0.87312233  0.29494572     0.01000
C717        C  0.23264058  0.87230101  0.30069343    -0.24300
C718        C  0.30289844  0.87388283  0.22656983    -0.28900
C719        C  0.29575174  0.87362824  0.20208048     0.06700
C720        C  0.27090317  0.87398112  0.19621796    -0.27600
H721        H  0.31155990  0.87263334  0.27450778     0.11400
H722        H  0.28097338  0.87174000  0.30676901     0.12500
H723        H  0.22253116  0.87550258  0.19011717     0.11600
H724        H  0.19194847  0.87594254  0.22243104     0.10800
H725        H  0.18149621  0.87499177  0.26587862     0.16200
H726        H  0.23828143  0.87121785  0.31952163     0.12100
H727        H  0.32202567  0.87330503  0.23115777     0.15000
H728        H  0.26532087  0.87384026  0.17734003     0.14800
C729        C  0.39680913  0.73973732  0.21849940    -0.18100
C730        C  0.39597379  0.72161981  0.23627233    -0.20300
C731        C  0.38325150  0.72545584  0.25799721     0.20400
C732        C  0.37127541  0.74776901  0.26189355    -0.03200
C733        C  0.37214696  0.76604641  0.24399118    -0.06300
C734        C  0.38492995  0.76196785  0.22216842     0.20600
C735        C  0.36007759  0.78830524  0.24786355     0.18800
C736        C  0.34725117  0.79212222  0.26952319    -0.17800
C737        C  0.34637532  0.77399248  0.28726359    -0.20000
C738        C  0.35834316  0.75179771  0.28362613     0.20300
C739        C  0.35757531  0.73356611  0.30134049    -0.33000
C740        C  0.36954184  0.71130287  0.29765262     0.01000
C741        C  0.38228240  0.70736711  0.27587784    -0.24300
C742        C  0.38534169  0.78005260  0.20427077    -0.28900
C743        C  0.37312471  0.80215841  0.20790636     0.06700
C744        C  0.36075100  0.80623707  0.22987384    -0.27600
H745        H  0.40667743  0.73632466  0.20183731     0.11400
H746        H  0.40525029  0.70457953  0.23300717     0.12500
H747        H  0.33782461  0.80910069  0.27270573     0.11600
H748        H  0.33632447  0.77732605  0.30383337     0.10800
H749        H  0.34756573  0.73671389  0.31798394     0.16200
H750        H  0.39149011  0.69023751  0.27283054     0.12100
H751        H  0.39491601  0.77678046  0.18739876     0.15000
H752        H  0.35116247  0.82318457  0.23280470     0.14800
C753        C  0.26367728  0.78359393  0.39537594    -0.18100
C754        C  0.28172896  0.76570537  0.39589758    -0.20300
C755        C  0.27827712  0.74349522  0.38386065     0.20400
C756        C  0.25627961  0.73919652  0.37142392    -0.03200
C757        C  0.23811111  0.75724138  0.37085259    -0.06300
C758        C  0.24189619  0.77959971  0.38276033     0.20600
C759        C  0.21629538  0.75299793  0.35809871     0.18800
C760        C  0.21271417  0.73073148  0.34626717    -0.17800
C761        C  0.23068920  0.71286342  0.34684518    -0.20000
C762        C  0.25251956  0.71697629  0.35927291     0.20300
C763        C  0.27073445  0.69931249  0.35946551    -0.33000
C764        C  0.29285655  0.70347555  0.37149804     0.01000
C765        C  0.29648153  0.72561374  0.38377978    -0.24300
C766        C  0.22398022  0.79766895  0.38156095    -0.28900
C767        C  0.20232827  0.79369690  0.36856640     0.06700
C768        C  0.19856023  0.77119211  0.35709781    -0.27600
H769        H  0.26684156  0.80064544  0.40466972     0.11400
H770        H  0.29845897  0.76930837  0.40558508     0.12500
H771        H  0.19606634  0.72719704  0.33641004     0.11600
H772        H  0.22757825  0.69586760  0.33742481     0.10800
H773        H  0.26777527  0.68240463  0.34981767     0.16200
H774        H  0.31349007  0.72901457  0.39306513     0.12100
H775        H  0.22702605  0.81491433  0.39054850     0.15000
H776        H  0.18195553  0.76792620  0.34705284     0.14800
C777        C  0.23622089  0.78495858  0.10999419    -0.18100
C778        C  0.21828704  0.76694970  0.10973944    -0.20300
C779        C  0.22347689  0.74335126  0.11789847     0.20400
C780        C  0.24709036  0.73777212  0.12610590    -0.03200
C781        C  0.26521233  0.75597792  0.12637645    -0.06300
C782        C  0.25968548  0.77972129  0.11843211     0.20600
C783        C  0.28872031  0.75050696  0.13493973     0.18800
C784        C  0.29401325  0.72680322  0.14275393    -0.17800
C785        C  0.27607416  0.70878600  0.14249964    -0.20000
C786        C  0.25250777  0.71412653  0.13439921     0.20300
C787        C  0.23420039  0.69635167  0.13479541    -0.33000
C788        C  0.21045672  0.70183803  0.12698284     0.01000
C789        C  0.20537299  0.72537619  0.11832630    -0.24300
C790        C  0.27757204  0.79790116  0.11940625    -0.28900
C791        C  0.30095556  0.79277503  0.12839312     0.06700
C792        C  0.30639989  0.76889541  0.13589554    -0.27600
H793        H  0.23166122  0.80307317  0.10378861     0.11400
H794        H  0.20026973  0.77154933  0.10334326     0.12500
H795        H  0.31198581  0.72224868  0.14930933     0.11600
H796        H  0.28058045  0.69071250  0.14886940     0.10800
H797        H  0.23839959  0.67831662  0.14150518     0.16200
H798        H  0.18719230  0.72987685  0.11230946     0.12100
H799        H  0.27312090  0.81616776  0.11355028     0.15000
H800        H  0.32434213  0.76464015  0.14275393     0.14800
C801        C  0.15860454  0.78894164  0.23045722    -0.18100
C802        C  0.15933586  0.77061035  0.21293165    -0.20300
C803        C  0.14530609  0.74952722  0.21569514     0.20400
C804        C  0.13050622  0.74677415  0.23641401    -0.03200
C805        C  0.12979882  0.76528906  0.25415751    -0.06300
C806        C  0.14388139  0.78646965  0.25108234     0.20600
C807        C  0.11515073  0.76254547  0.27499947     0.18800
C808        C  0.10122098  0.74136508  0.27779272    -0.17800
C809        C  0.10188259  0.72302634  0.26017334    -0.20000
C810        C  0.11648672  0.72553079  0.23942958     0.20300
C811        C  0.11732098  0.70722419  0.22164620    -0.33000
C812        C  0.13186371  0.70998874  0.20078367     0.01000
C813        C  0.14584164  0.73119721  0.19805925    -0.24300
C814        C  0.14328489  0.80469937  0.26880875    -0.28900
C815        C  0.12909232  0.80199776  0.28987361     0.06700
C816        C  0.11494292  0.78088487  0.29277290    -0.27600
H817        H  0.16961351  0.80505162  0.22790145     0.11400
H818        H  0.17086249  0.77294819  0.19717077     0.12500
H819        H  0.08986026  0.73893980  0.29365844     0.11600
H820        H  0.09098544  0.70685575  0.26279357     0.10800
H821        H  0.10654383  0.69091866  0.22398095     0.16200
H822        H  0.15731206  0.73341667  0.18222532     0.12100
H823        H  0.15440958  0.82077611  0.26645136     0.15000
H824        H  0.10394141  0.77863279  0.30892585     0.14800
C825        C  0.23089786  0.62461834  0.28955423    -0.18100
C826        C  0.21222474  0.62482462  0.27233583    -0.20300
C827        C  0.21748027  0.62782806  0.24758885     0.20400
C828        C  0.24184421  0.63046215  0.24009858    -0.03200
C829        C  0.26066439  0.63063492  0.25752554    -0.06300
C830        C  0.25513629  0.62765481  0.28235965     0.20600
C831        C  0.28494781  0.63404075  0.25012135     0.18800
C832        C  0.29023166  0.63678747  0.22533870    -0.17800
C833        C  0.27162801  0.63624756  0.20803847    -0.20000
C834        C  0.24739010  0.63317660  0.21523225     0.20300
C835        C  0.22858409  0.63305029  0.19804145    -0.33000
C836        C  0.20425321  0.63095862  0.20542804     0.01000
C837        C  0.19881395  0.62843877  0.23022891    -0.24300
C838        C  0.27388135  0.62806185  0.29960124    -0.28900
C839        C  0.29808729  0.63189331  0.29245211     0.06700
C840        C  0.30346724  0.63485627  0.26763724    -0.27600
H841        H  0.22634966  0.62231914  0.30855175     0.11400
H842        H  0.19364593  0.62268254  0.27839083     0.12500
H843        H  0.30876647  0.63939166  0.21932927     0.11600
H844        H  0.27618252  0.63844374  0.18902833     0.10800
H845        H  0.23280253  0.63528460  0.17894099     0.16200
H846        H  0.18006947  0.62674690  0.23595447     0.12100
H847        H  0.26953599  0.62598124  0.31868361     0.15000
H848        H  0.32207293  0.63775156  0.26194974     0.14800
C849        C  0.38606036  0.51576446  0.31803433    -0.18100
C850        C  0.38704030  0.49037589  0.31832163    -0.20300
C851        C  0.37481744  0.47717009  0.33636417     0.20400
C852        C  0.36210607  0.48966650  0.35474105    -0.03200
C853        C  0.36116911  0.51530421  0.35448561    -0.06300
C854        C  0.37293008  0.52837640  0.33584453     0.20600
C855        C  0.34799104  0.52780081  0.37253822     0.18800
C856        C  0.33622328  0.51459569  0.39088709    -0.17800
C857        C  0.33710800  0.48919236  0.39110906    -0.20000
C858        C  0.34975922  0.47655011  0.37297432     0.20300
C859        C  0.34954115  0.45105452  0.37225056    -0.33000
C860        C  0.36116422  0.43849765  0.35328431     0.01000
C861        C  0.37435434  0.45170881  0.33582369    -0.24300
C862        C  0.37100552  0.55378163  0.33508621    -0.28900
C863        C  0.35760761  0.56637640  0.35281674     0.06700
C864        C  0.34642453  0.55323424  0.37167496    -0.27600
H865        H  0.39530402  0.52552835  0.30367332     0.11400
H866        H  0.39697455  0.48104931  0.30414545     0.12500
H867        H  0.32605190  0.52391046  0.40490155     0.11600
H868        H  0.32755409  0.47941618  0.40525593     0.10800
H869        H  0.33942115  0.44105805  0.38585275     0.16200
H870        H  0.38362842  0.44220641  0.32130532     0.12100
H871        H  0.37976870  0.56373272  0.32053808     0.15000
H872        H  0.33597134  0.56273934  0.38536494     0.14800
C873        C  0.31498781  0.99052386  0.12882218    -0.18100
C874        C  0.31543066  0.01588326  0.12846928    -0.20300
C875        C  0.33670874  0.02848843  0.13448585     0.20400
C876        C  0.35786593  0.01548067  0.14067412    -0.03200
C877        C  0.35744106  0.98982244  0.14094338    -0.06300
C878        C  0.33584081  0.97734451  0.13511645     0.20600
C879        C  0.37845675  0.97669428  0.14741565     0.18800
C880        C  0.39978778  0.98938024  0.15328178    -0.17800
C881        C  0.40018645  0.01484277  0.15309074    -0.20000
C882        C  0.37926899  0.02808968  0.14699210     0.20300
C883        C  0.37916767  0.05366028  0.14757091    -0.33000
C884        C  0.35790546  0.06670261  0.14185128     0.01000
C885        C  0.33694424  0.05388623  0.13491499    -0.24300
C886        C  0.33528529  0.95191858  0.13605983    -0.28900
C887        C  0.35598021  0.93860913  0.14290592     0.06700
C888        C  0.37761836  0.95116839  0.14830779    -0.27600
H889        H  0.29825702  0.98121004  0.12433574     0.11400
H890        H  0.29903044  0.02565368  0.12372823     0.12500
H891        H  0.41611162  0.97960710  0.15826534     0.11600
H892        H  0.41680192  0.02417578  0.15794416     0.10800
H893        H  0.39544838  0.06334523  0.15288671     0.16200
H894        H  0.32045291  0.06366338  0.13047863     0.12100
H895        H  0.31850517  0.94251714  0.13191031     0.15000
H896        H  0.39368249  0.94113017  0.15362932     0.14800
C897        C  0.39441757  0.26853981  0.21275612    -0.18100
C898        C  0.39422790  0.28674087  0.23044243    -0.20300
C899        C  0.38576345  0.28174394  0.25393576     0.20400
C900        C  0.37761559  0.25812914  0.25974258    -0.03200
C901        C  0.37782283  0.23978949  0.24193160    -0.06300
C902        C  0.38613525  0.24507678  0.21829642     0.20600
C903        C  0.36936192  0.21627931  0.24768740     0.18800
C904        C  0.36108948  0.21121254  0.27122340    -0.17800
C905        C  0.36086213  0.22940068  0.28887687    -0.20000
C906        C  0.36895694  0.25289467  0.28325632     0.20300
C907        C  0.36830670  0.27128694  0.30070572    -0.33000
C908        C  0.37622128  0.29490790  0.29504760     0.01000
C909        C  0.38506176  0.29998575  0.27165105    -0.24300
C910        C  0.38558467  0.22693695  0.20050065    -0.28900
C911        C  0.37663208  0.20363493  0.20596913     0.06700
C912        C  0.36886869  0.19836321  0.22969491    -0.27600
H913        H  0.40085356  0.27286815  0.19467953     0.11400
H914        H  0.40054693  0.30476780  0.22570020     0.12500
H915        H  0.35456810  0.19324131  0.27591052     0.11600
H916        H  0.35419402  0.22513667  0.30688583     0.10800
H917        H  0.36143498  0.26719079  0.31868916     0.16200
H918        H  0.39111887  0.31816894  0.26712693     0.12100
H919        H  0.39160804  0.23115487  0.18224596     0.15000
H920        H  0.36204219  0.18041922  0.23409055     0.14800
C921        C  0.14992339  0.48911051  0.10108388    -0.18100
C922        C  0.14972129  0.51454640  0.10127423    -0.20300
C923        C  0.14565881  0.52727991  0.12297144     0.20400
C924        C  0.14092666  0.51423612  0.14452437    -0.03200
C925        C  0.14111680  0.48860148  0.14433004    -0.06300
C926        C  0.14605941  0.47597182  0.12258716     0.20600
C927        C  0.13708645  0.47565174  0.16605632     0.18800
C928        C  0.13228960  0.48832312  0.18761635    -0.17800
C929        C  0.13211937  0.51369356  0.18781236    -0.20000
C930        C  0.13672361  0.52677977  0.16644712     0.20300
C931        C  0.13791095  0.55216876  0.16682454    -0.33000
C932        C  0.14359732  0.56532348  0.14566488     0.01000
C933        C  0.14695346  0.55276114  0.12366664    -0.24300
C934        C  0.14777619  0.45050361  0.12290384    -0.28900
C935        C  0.14462433  0.43755297  0.14471238     0.06700
C936        C  0.13866604  0.45028542  0.16605144    -0.27600
H937        H  0.15357153  0.47971840  0.08419585     0.11400
H938        H  0.15321494  0.52426342  0.08452569     0.12500
H939        H  0.12910485  0.47861121  0.20443249     0.11600
H940        H  0.12880454  0.52308435  0.20477344     0.10800
H941        H  0.13519574  0.56162764  0.18386545     0.16200
H942        H  0.15114138  0.56274649  0.10722630     0.12100
H943        H  0.15214914  0.44084352  0.10633078     0.15000
H944        H  0.13606629  0.44052558  0.18295174     0.14800
C945        C  0.23427794  0.37585483  0.28750360    -0.18100
C946        C  0.21551440  0.37501341  0.27038007    -0.20300
C947        C  0.22074545  0.37398473  0.24546333     0.20400
C948        C  0.24517093  0.37387957  0.23773516    -0.03200
C949        C  0.26413642  0.37430268  0.25506199    -0.06300
C950        C  0.25863383  0.37538619  0.28005357     0.20600
C951        C  0.28856019  0.37337214  0.24738569     0.18800
C952        C  0.29378229  0.37253702  0.22244852    -0.17800
C953        C  0.27501731  0.37253323  0.20528085    -0.20000
C954        C  0.25065746  0.37311920  0.21272177     0.20300
C955        C  0.23170877  0.37272790  0.19562084    -0.33000
C956        C  0.20731126  0.37243027  0.20318829     0.01000
C957        C  0.20200205  0.37293036  0.22817061    -0.24300
C958        C  0.27754253  0.37559963  0.29717439    -0.28900
C959        C  0.30194486  0.37408155  0.28974806     0.06700
C960        C  0.30728543  0.37300980  0.26476861    -0.27600
H961        H  0.22972546  0.37662502  0.30662102     0.11400
H962        H  0.19688166  0.37516290  0.27664199     0.12500
H963        H  0.31240833  0.37185007  0.21620566     0.11600
H964        H  0.27956647  0.37186526  0.18615901     0.10800
H965        H  0.23594267  0.37203200  0.17641292     0.16200
H966        H  0.18325750  0.37273692  0.23413318     0.12100
H967        H  0.27321974  0.37619630  0.31636494     0.15000
H968        H  0.32601447  0.37191295  0.25886703     0.14800
C969        C  0.29475573  0.27632129  0.14346626    -0.18100
C970        C  0.27671358  0.29414638  0.14304858    -0.20300
C971        C  0.25376368  0.28901102  0.13331001     0.20400
C972        C  0.24895399  0.26573870  0.12372402    -0.03200
C973        C  0.26720137  0.24772169  0.12413674    -0.06300
C974        C  0.29015988  0.25305928  0.13415309     0.20600
C975        C  0.26240241  0.22434673  0.11478955     0.18800
C976        C  0.23942267  0.21925895  0.10499091    -0.17800
C977        C  0.22131399  0.23711707  0.10461395    -0.20000
C978        C  0.22586455  0.26038984  0.11401073     0.20300
C979        C  0.20768021  0.27829591  0.11419610    -0.33000
C980        C  0.21228502  0.30147551  0.12403984     0.01000
C981        C  0.23547950  0.30667962  0.13334551    -0.24300
C982        C  0.30807727  0.23501187  0.13494809    -0.28900
C983        C  0.30346971  0.21157905  0.12587522     0.06700
C984        C  0.28057741  0.20644295  0.11565620    -0.27600
H985        H  0.31229114  0.28069865  0.15121777     0.11400
H986        H  0.28066848  0.31192575  0.15049912     0.12500
H987        H  0.23540396  0.20141330  0.09774081     0.11600
H988        H  0.20369541  0.23267624  0.09709272     0.10800
H989        H  0.18985618  0.27404118  0.10703941     0.16200
H990        H  0.23924248  0.32440329  0.14105188     0.12100
H991        H  0.32559860  0.23920517  0.14285755     0.15000
H992        H  0.27677170  0.18843499  0.10867473     0.14800
C993        C  0.11904040  0.99090533  0.32253048    -0.18100
C994        C  0.12028174  0.01623004  0.32173095    -0.20300
C995        C  0.13596439  0.02885722  0.33730879     0.20400
C996        C  0.15042558  0.01589325  0.35402803    -0.03200
C997        C  0.14942568  0.99027512  0.35459685    -0.06300
C998        C  0.13364407  0.97778327  0.33874323     0.20600
C999        C  0.16450556  0.97717138  0.37066003     0.18800
C1000       C  0.17992047  0.98987051  0.38651386    -0.17800
C1001       C  0.18063950  0.01531307  0.38620726    -0.20000
C1002       C  0.16611611  0.02848962  0.36989582     0.20300
C1003       C  0.16720731  0.05398385  0.36891076    -0.33000
C1004       C  0.15315923  0.06694933  0.35191720     0.01000
C1005       C  0.13756971  0.05421204  0.33624895    -0.24300
C1006       C  0.13315838  0.95236480  0.33888054    -0.28900
C1007       C  0.14877306  0.93913711  0.35408961     0.06700
C1008       C  0.16425225  0.95163831  0.37015148    -0.27600
H1009       H  0.10688250  0.98155300  0.31021578     0.11400
H1010       H  0.10903475  0.02594678  0.30883686     0.12500
H1011       H  0.19155369  0.98012017  0.39903237     0.11600
H1012       H  0.19277934  0.02467625  0.39852961     0.10800
H1013       H  0.17939525  0.06367505  0.38094493     0.16200
H1014       H  0.12659704  0.06406871  0.32320262     0.12100
H1015       H  0.12134838  0.94284928  0.32633102     0.15000
H1016       H  0.17626227  0.94150112  0.38200966     0.14800
C1017       C  0.29301338  0.23367562  0.38145957    -0.18100
C1018       C  0.27535194  0.21540997  0.38187531    -0.20300
C1019       C  0.25115385  0.22073579  0.37596648     0.20400
C1020       C  0.24462125  0.24475890  0.36981431    -0.03200
C1021       C  0.26251271  0.26310620  0.36903582    -0.06300
C1022       C  0.28681385  0.25753987  0.37492700     0.20600
C1023       C  0.25610635  0.28694476  0.36212642     0.18800
C1024       C  0.23188316  0.29230829  0.35637466    -0.17800
C1025       C  0.21409739  0.27421707  0.35747352    -0.20000
C1026       C  0.22027648  0.25039196  0.36409962     0.20300
C1027       C  0.20265185  0.23199854  0.36460792    -0.33000
C1028       C  0.20923270  0.20792637  0.36989838     0.01000
C1029       C  0.23345500  0.20241149  0.37566365    -0.24300
C1030       C  0.30449692  0.27588373  0.37400432    -0.28900
C1031       C  0.29827131  0.29967896  0.36695188     0.06700
C1032       C  0.27402037  0.30499536  0.36097983    -0.27600
H1033       H  0.31157666  0.22908508  0.38603637     0.11400
H1034       H  0.28064601  0.19707882  0.38671553     0.12500
H1035       H  0.22668348  0.31052123  0.35101257     0.11600
H1036       H  0.19553219  0.27881227  0.35290330     0.10800
H1037       H  0.18400466  0.23618065  0.35989612     0.16200
H1038       H  0.23848858  0.18382427  0.37982107     0.12100
H1039       H  0.32316228  0.27154096  0.37844973     0.15000
H1040       H  0.26902574  0.32324599  0.35551130     0.14800
C1041       C  0.22989032  0.14580636  0.20431222    -0.18100
C1042       C  0.21206267  0.14627210  0.22239896    -0.20300
C1043       C  0.21805415  0.14093638  0.24660310     0.20400
C1044       C  0.24224358  0.13503798  0.25261480    -0.03200
C1045       C  0.26022439  0.13457745  0.23437654    -0.06300
C1046       C  0.25401149  0.14001536  0.21012315     0.20600
C1047       C  0.28442148  0.12876180  0.24045257     0.18800
C1048       C  0.29045150  0.12359133  0.26465238    -0.17800
C1049       C  0.27264437  0.12401738  0.28270334    -0.20000
C1050       C  0.24851301  0.12964769  0.27686531     0.20300
C1051       C  0.23059343  0.13001505  0.29489796    -0.33000
C1052       C  0.20643826  0.13587407  0.28913581     0.01000
C1053       C  0.20032738  0.14141717  0.26490657    -0.24300
C1054       C  0.27204772  0.13970876  0.19215685    -0.28900
C1055       C  0.29621352  0.13388680  0.19808265     0.06700
C1056       C  0.30220623  0.12835466  0.22227650    -0.27600
H1057       H  0.22481700  0.15002737  0.18577669     0.11400
H1058       H  0.19358344  0.15083359  0.21745723     0.12500
H1059       H  0.30896203  0.11919681  0.26962756     0.11600
H1060       H  0.27775424  0.11992614  0.30125649     0.10800
H1061       H  0.23553683  0.12592332  0.31350667     0.16200
H1062       H  0.18177025  0.14601717  0.26025789     0.12100
H1063       H  0.26726424  0.14405311  0.17356215     0.15000
H1064       H  0.32081608  0.12411638  0.22706112     0.14800
C1065       C  0.13447154  0.22680148  0.20881072    -0.18100
C1066       C  0.13314387  0.20991955  0.22773965    -0.20300
C1067       C  0.13248340  0.21775275  0.25197087     0.20400
C1068       C  0.13307104  0.24281096  0.25724788    -0.03200
C1069       C  0.13411745  0.25982851  0.23816026    -0.06300
C1070       C  0.13497395  0.25178141  0.21381542     0.20600
C1071       C  0.13439514  0.28488121  0.24345710     0.18800
C1072       C  0.13389604  0.29272505  0.26768202    -0.17800
C1073       C  0.13321347  0.27584197  0.28661611    -0.20000
C1074       C  0.13281344  0.25087164  0.28159398     0.20300
C1075       C  0.13243664  0.23381387  0.30047558    -0.33000
C1076       C  0.13185258  0.20884772  0.29529204     0.01000
C1077       C  0.13159352  0.20095529  0.27102673    -0.24300
C1078       C  0.13624926  0.26886990  0.19494819    -0.28900
C1079       C  0.13610420  0.29383067  0.20018421     0.06700
C1080       C  0.13517485  0.30167859  0.22444147    -0.27600
H1081       H  0.13507035  0.22031938  0.19025115     0.11400
H1082       H  0.13279014  0.19071832  0.22343310     0.12500
H1083       H  0.13414909  0.31192898  0.27198713     0.11600
H1084       H  0.13300649  0.28231345  0.30518876     0.10800
H1085       H  0.13264271  0.23993395  0.31918276     0.16200
H1086       H  0.13148208  0.18167956  0.26697498     0.12100
H1087       H  0.13688769  0.26280229  0.17623616     0.15000
H1088       H  0.13534455  0.32094762  0.22853705     0.14800
C1089       C  0.01537166  0.39168806  0.16341273    -0.18100
C1090       C  0.99000498  0.39138456  0.16287146    -0.20300
C1091       C  0.97756107  0.37182266  0.15230545     0.20400
C1092       C  0.99076202  0.35237323  0.14215333    -0.03200
C1093       C  0.01634158  0.35268587  0.14269252    -0.06300
C1094       C  0.02870812  0.37243341  0.15339640     0.20600
C1095       C  0.02951198  0.33313783  0.13271793     0.18800
C1096       C  0.01707441  0.31352787  0.12222437    -0.17800
C1097       C  0.99172605  0.31320621  0.12171263    -0.20000
C1098       C  0.97842321  0.33249994  0.13167044     0.20300
C1099       C  0.95301059  0.33211713  0.13160019    -0.33000
C1100       C  0.93972823  0.35134299  0.14188183     0.01000
C1101       C  0.95215622  0.37123493  0.15200288    -0.24300
C1102       C  0.05416467  0.37243770  0.15415005    -0.28900
C1103       C  0.06740976  0.35285927  0.14448154     0.06700
C1104       C  0.05488889  0.33337916  0.13364363    -0.27600
H1105       H  0.02456386  0.40695155  0.17175389     0.11400
H1106       H  0.98011130  0.40641849  0.17080963     0.12500
H1107       H  0.02696000  0.29836920  0.11451434     0.11600
H1108       H  0.98252379  0.29781006  0.11362440     0.10800
H1109       H  0.94359121  0.31668702  0.12380515     0.16200
H1110       H  0.94208071  0.38606128  0.16012388     0.12100
H1111       H  0.06362291  0.38746899  0.16263597     0.15000
H1112       H  0.06488586  0.31818515  0.12612503     0.14800
C1113       C  0.01734221  0.11723459  0.31663575    -0.18100
C1114       C  0.99193563  0.11742079  0.31635407    -0.20300
C1115       C  0.97890790  0.12987872  0.33436495     0.20400
C1116       C  0.99163252  0.14192927  0.35306598    -0.03200
C1117       C  0.01725498  0.14202607  0.35316644    -0.06300
C1118       C  0.03016979  0.12965819  0.33482697     0.20600
C1119       C  0.02991978  0.15499751  0.37128924     0.18800
C1120       C  0.01692856  0.16702823  0.38957770    -0.17800
C1121       C  0.99157247  0.16661310  0.38969063    -0.20000
C1122       C  0.97878330  0.15440625  0.37135454     0.20300
C1123       C  0.95339032  0.15511966  0.37061861    -0.33000
C1124       C  0.94054492  0.14404548  0.35151065     0.01000
C1125       C  0.95344310  0.13106345  0.33366332    -0.24300
C1126       C  0.05564356  0.13046243  0.33467724    -0.28900
C1127       C  0.06829516  0.14408846  0.35219089     0.06700
C1128       C  0.05532077  0.15616054  0.37051802    -0.27600
H1129       H  0.02696704  0.10768295  0.30239610     0.11400
H1130       H  0.98247553  0.10802831  0.30189008     0.12500
H1131       H  0.02638193  0.17696780  0.40367565     0.11600
H1132       H  0.98195000  0.17625087  0.40387607     0.10800
H1133       H  0.94368391  0.16513661  0.38449424     0.16200
H1134       H  0.94372231  0.12231653  0.31895693     0.12100
H1135       H  0.06558582  0.12136879  0.32033729     0.15000
H1136       H  0.06503234  0.16663730  0.38406503     0.14800
C1137       C  0.86074740  0.22434542  0.20422718    -0.18100
C1138       C  0.86124181  0.20662141  0.22242505    -0.20300
C1139       C  0.86802961  0.21270484  0.24621180     0.20400
C1140       C  0.87454654  0.23686272  0.25173693    -0.03200
C1141       C  0.87404925  0.25474569  0.23341779    -0.06300
C1142       C  0.86706343  0.24846674  0.20957839     0.20600
C1143       C  0.88040778  0.27893344  0.23902132     0.18800
C1144       C  0.88711909  0.28504265  0.26280611    -0.17800
C1145       C  0.88761185  0.26732509  0.28096290    -0.20000
C1146       C  0.88138202  0.24321182  0.27560232     0.20300
C1147       C  0.88160794  0.22542644  0.29378094    -0.33000
C1148       C  0.87481933  0.20139765  0.28850244     0.01000
C1149       C  0.86816504  0.19515655  0.26464011    -0.24300
C1150       C  0.86641182  0.26643510  0.19153573    -0.28900
C1151       C  0.87283236  0.29057806  0.19702158     0.06700
C1152       C  0.87983902  0.29663223  0.22078744    -0.27600
H1153       H  0.85536327  0.21922718  0.18603476     0.11400
H1154       H  0.85619283  0.18812439  0.21789910     0.12500
H1155       H  0.89196866  0.30356450  0.26738585     0.11600
H1156       H  0.89280597  0.27249135  0.29921100     0.10800
H1157       H  0.88656502  0.23042478  0.31215358     0.16200
H1158       H  0.86290220  0.17663917  0.26041825     0.12100
H1159       H  0.86094119  0.26161934  0.17327057     0.15000
H1160       H  0.88458795  0.31523166  0.22520522     0.14800
C1161       C  0.49277364  0.32559903  0.38177295    -0.14900
C1162       C  0.51814554  0.32556361  0.38211217    -0.20300
C1163       C  0.53126261  0.34125581  0.36692300     0.20400
C1164       C  0.51868713  0.35727649  0.35134287    -0.03200
C1165       C  0.49305990  0.35751883  0.35121646    -0.06300
C1166       C  0.48007938  0.34145610  0.36637482     0.20600
C1167       C  0.48045395  0.37359259  0.33571552     0.18800
C1168       C  0.49359708  0.38920496  0.32043787    -0.17800
C1169       C  0.51899235  0.38876015  0.32035082    -0.20000
C1170       C  0.53169524  0.37282725  0.33567512     0.20300
C1171       C  0.55714520  0.37193348  0.33537995    -0.33000
C1172       C  0.56979107  0.35595514  0.35081042     0.01000
C1173       C  0.55671323  0.34091304  0.36676373    -0.24300
C1174       C  0.45464681  0.34126618  0.36563737    -0.28900
C1175       C  0.44190279  0.35710299  0.35014583     0.06700
C1176       C  0.45495812  0.37346546  0.33546943    -0.27600
H1177       H  0.48306710  0.31314961  0.39351606     0.11400
H1178       H  0.52751692  0.31309729  0.39411448     0.12500
H1179       H  0.48422611  0.40161531  0.30837809     0.11600
H1180       H  0.52870313  0.40083209  0.30822485     0.10800
H1181       H  0.56712675  0.38360987  0.32306732     0.16200
H1182       H  0.56632697  0.32836688  0.37850984     0.12100
H1183       H  0.44474685  0.32863121  0.37703698     0.15000
H1184       H  0.44530459  0.38556281  0.32329778     0.14800
C1185       C  0.73708063  0.21275446  0.35899901    -0.18100
C1186       C  0.71831358  0.22985073  0.35883006    -0.20300
C1187       C  0.72317761  0.25444135  0.36348046     0.20400
C1188       C  0.74723052  0.26191639  0.36816923    -0.03200
C1189       C  0.76623724  0.24472059  0.36795863    -0.06300
C1190       C  0.76105131  0.21999963  0.36360422     0.20600
C1191       C  0.79040079  0.25226387  0.37205509     0.18800
C1192       C  0.79525299  0.27686040  0.37666061    -0.17800
C1193       C  0.77635957  0.29384200  0.37724363    -0.20000
C1194       C  0.75231597  0.28656963  0.37297106     0.20300
C1195       C  0.73331747  0.30354848  0.37318622    -0.33000
C1196       C  0.70932003  0.29630944  0.36822998     0.01000
C1197       C  0.70443390  0.27169068  0.36337399    -0.24300
C1198       C  0.77992473  0.20296212  0.36390770    -0.28900
C1199       C  0.80399909  0.21036840  0.36779901     0.06700
C1200       C  0.80922302  0.23505759  0.37152876    -0.27600
H1201       H  0.73285323  0.19385740  0.35545803     0.11400
H1202       H  0.69996598  0.22382081  0.35513961     0.12500
H1203       H  0.81366256  0.28295824  0.37990222     0.11600
H1204       H  0.78057754  0.31271310  0.38090338     0.10800
H1205       H  0.73731136  0.32250964  0.37668649     0.16200
H1206       H  0.68602242  0.26593196  0.35951114     0.12100
H1207       H  0.77597826  0.18393470  0.36064817     0.15000
H1208       H  0.82782673  0.24073689  0.37449680     0.14800
C1209       C  0.79724563  0.35658422  0.27047447    -0.18100
C1210       C  0.77946805  0.35684965  0.28857698    -0.20300
C1211       C  0.75651039  0.36686160  0.28393782     0.20400
C1212       C  0.75167055  0.37743441  0.26110380    -0.03200
C1213       C  0.76962269  0.37714829  0.24281117    -0.06300
C1214       C  0.79234370  0.36628549  0.24742087     0.20600
C1215       C  0.76456195  0.38704263  0.21971028     0.18800
C1216       C  0.74193333  0.39792884  0.21541143    -0.17800
C1217       C  0.72414080  0.39821058  0.23354015    -0.20000
C1218       C  0.72867317  0.38763560  0.25629598     0.20300
C1219       C  0.71044384  0.38653033  0.27408754    -0.33000
C1220       C  0.71487450  0.37528415  0.29663576     0.01000
C1221       C  0.73814632  0.36591006  0.30152623    -0.24300
C1222       C  0.80948428  0.36461161  0.22870229    -0.28900
C1223       C  0.80420568  0.37345147  0.20528029     0.06700
C1224       C  0.78190534  0.38520528  0.20111914    -0.27600
H1225       H  0.81466914  0.34832392  0.27435285     0.11400
H1226       H  0.78352724  0.34880485  0.30607119     0.12500
H1227       H  0.73780597  0.40578594  0.19785073     0.11600
H1228       H  0.70665428  0.40629715  0.22959683     0.10800
H1229       H  0.69266249  0.39397770  0.27016513     0.16200
H1230       H  0.74186103  0.35733775  0.31885751     0.12100
H1231       H  0.82671001  0.35578210  0.23224896     0.15000
H1232       H  0.77775858  0.39234810  0.18325225     0.14800
C1233       C  0.51643487  0.11712415  0.17776873    -0.18100
C1234       C  0.49110333  0.11824850  0.17816362    -0.20300
C1235       C  0.47849297  0.13119811  0.16019297     0.20400
C1236       C  0.49146560  0.14279077  0.14140012    -0.03200
C1237       C  0.51701383  0.14185997  0.14113158    -0.06300
C1238       C  0.52953835  0.12908029  0.15949779     0.20600
C1239       C  0.53002241  0.15431484  0.12290240     0.18800
C1240       C  0.51740943  0.16681540  0.10464421    -0.17800
C1241       C  0.49206289  0.16750306  0.10475693    -0.20000
C1242       C  0.47895572  0.15582692  0.12321384     0.20300
C1243       C  0.45360085  0.15743662  0.12410592    -0.33000
C1244       C  0.44059276  0.14649257  0.14314759     0.01000
C1245       C  0.45317433  0.13317066  0.16096929    -0.24300
C1246       C  0.55494042  0.12924324  0.15976933    -0.28900
C1247       C  0.56789323  0.14265629  0.14238042     0.06700
C1248       C  0.55539760  0.15474568  0.12373630    -0.27600
H1249       H  0.52579429  0.10727700  0.19200645     0.11400
H1250       H  0.48138134  0.10921171  0.19268197     0.12500
H1251       H  0.52715814  0.17636521  0.09047472     0.11600
H1252       H  0.48271839  0.17753182  0.09063881     0.10800
H1253       H  0.44406906  0.16779588  0.11034147     0.16200
H1254       H  0.44329417  0.12457700  0.17566248     0.12100
H1255       H  0.56458843  0.12005709  0.17427468     0.15000
H1256       H  0.56543971  0.16496284  0.11022713     0.14800
C1257       C  0.71156884  0.27277059  0.12767357    -0.18100
C1258       C  0.72903593  0.29116200  0.12728642    -0.20300
C1259       C  0.75378552  0.28532480  0.12621129     0.20400
C1260       C  0.76106670  0.26074855  0.12546565    -0.03200
C1261       C  0.74350031  0.24223712  0.12622490    -0.06300
C1262       C  0.71862560  0.24829524  0.12719551     0.20600
C1263       C  0.75084946  0.21767641  0.12622132     0.18800
C1264       C  0.77557662  0.21182769  0.12507039    -0.17800
C1265       C  0.79300738  0.23018843  0.12395413    -0.20000
C1266       C  0.78591163  0.25465530  0.12422224     0.20300
C1267       C  0.80326992  0.27313797  0.12365752    -0.33000
C1268       C  0.79612518  0.29758254  0.12494655     0.01000
C1269       C  0.77141303  0.30360666  0.12616739    -0.24300
C1270       C  0.70128675  0.22974715  0.12788538    -0.28900
C1271       C  0.70860402  0.20533711  0.12822077     0.06700
C1272       C  0.73333433  0.19939812  0.12749502    -0.27600
H1273       H  0.69254744  0.27768214  0.12851880     0.11400
H1274       H  0.72319534  0.30994610  0.12786190     0.12500
H1275       H  0.78144215  0.19302782  0.12503482     0.11600
H1276       H  0.81201250  0.22527396  0.12309538     0.10800
H1277       H  0.82237136  0.26849364  0.12300396     0.16200
H1278       H  0.76593869  0.32250320  0.12709311     0.12100
H1279       H  0.68215175  0.23426317  0.12877183     0.15000
H1280       H  0.73891430  0.18049670  0.12769675     0.14800
C1281       C  0.72940753  0.15118806  0.29188417    -0.18100
C1282       C  0.71148232  0.15118061  0.27384644    -0.20300
C1283       C  0.71669703  0.14258914  0.25041334     0.20400
C1284       C  0.74017971  0.13386875  0.24513931    -0.03200
C1285       C  0.75822798  0.13383366  0.26332474    -0.06300
C1286       C  0.75283609  0.14254010  0.28681075     0.20600
C1287       C  0.78169526  0.12514736  0.25793637     0.18800
C1288       C  0.78698089  0.11671432  0.23451431    -0.17800
C1289       C  0.76912757  0.11675517  0.21652118    -0.20000
C1290       C  0.74570087  0.12525354  0.22165310     0.20300
C1291       C  0.72778912  0.12540801  0.20361681    -0.33000
C1292       C  0.70436806  0.13418326  0.20860090     0.01000
C1293       C  0.69893893  0.14270360  0.23211184    -0.24300
C1294       C  0.77099052  0.14247287  0.30473135    -0.28900
C1295       C  0.79441201  0.13364577  0.29946328     0.06700
C1296       C  0.79954392  0.12506765  0.27599839    -0.27600
H1297       H  0.72494900  0.15796990  0.30980002     0.11400
H1298       H  0.69355073  0.15796000  0.27820836     0.12500
H1299       H  0.80495010  0.11006480  0.23010290     0.11600
H1300       H  0.77365681  0.11014897  0.19856154     0.10800
H1301       H  0.73220908  0.11891252  0.18557813     0.16200
H1302       H  0.68094493  0.14954063  0.23615661     0.12100
H1303       H  0.76688440  0.14929872  0.32272455     0.15000
H1304       H  0.81756801  0.11849011  0.27165919     0.14800
C1305       C  0.65242012  0.29151634  0.22486775    -0.18100
C1306       C  0.65136860  0.27372911  0.20683689    -0.20300
C1307       C  0.64045474  0.25120454  0.21156421     0.20400
C1308       C  0.63024797  0.24658805  0.23458812    -0.03200
C1309       C  0.63130040  0.26457378  0.25281230    -0.06300
C1310       C  0.64257169  0.28706316  0.24791391     0.20600
C1311       C  0.62139698  0.25994512  0.27597751     0.18800
C1312       C  0.61028256  0.23745110  0.28059609    -0.17800
C1313       C  0.60929162  0.21957877  0.26252784    -0.20000
C1314       C  0.61935865  0.22390420  0.23951156     0.20300
C1315       C  0.61914501  0.20584464  0.22148078    -0.33000
C1316       C  0.62971114  0.21021772  0.19860899     0.01000
C1317       C  0.64001853  0.23309199  0.19376686    -0.24300
C1318       C  0.64409554  0.30464924  0.26618904    -0.28900
C1319       C  0.63457606  0.30015812  0.28944031     0.06700
C1320       C  0.62306000  0.27778279  0.29414773    -0.27600
H1321       H  0.66111438  0.30870559  0.22084010     0.11400
H1322       H  0.65929803  0.27751707  0.18923639     0.12500
H1323       H  0.60253890  0.23359585  0.29825923     0.11600
H1324       H  0.60082680  0.20229212  0.26662519     0.10800
H1325       H  0.61118084  0.18827571  0.22541785     0.16200
H1326       H  0.64827502  0.23668258  0.17626370     0.12100
H1327       H  0.65295947  0.32179925  0.26231783     0.15000
H1328       H  0.61560892  0.27413815  0.31199002     0.14800
C1329       C  0.48755800  0.68497751  0.38049709    -0.18100
C1330       C  0.51292089  0.68507053  0.38052364    -0.20300
C1331       C  0.52585075  0.66731066  0.36764120     0.20400
C1332       C  0.51313413  0.64904561  0.35491698    -0.03200
C1333       C  0.48758555  0.64881455  0.35508904    -0.06300
C1334       C  0.47476082  0.66704324  0.36769894     0.20600
C1335       C  0.47489621  0.63065985  0.34219278     0.18800
C1336       C  0.48781653  0.61279351  0.32946897    -0.17800
C1337       C  0.51314884  0.61317107  0.32908601    -0.20000
C1338       C  0.52592366  0.63132051  0.34155869     0.20300
C1339       C  0.55124387  0.63236926  0.34044997    -0.33000
C1340       C  0.56395627  0.65069150  0.35277199     0.01000
C1341       C  0.55124265  0.66782181  0.36674045    -0.24300
C1342       C  0.44938071  0.66733977  0.36681270    -0.28900
C1343       C  0.43665577  0.64960807  0.35355024     0.06700
C1344       C  0.44951592  0.63103983  0.34171229    -0.27600
H1345       H  0.47794871  0.69907337  0.39028625     0.11400
H1346       H  0.52242156  0.69923034  0.39033806     0.12500
H1347       H  0.47831911  0.59874437  0.31949630     0.11600
H1348       H  0.52274942  0.59940965  0.31882393     0.10800
H1349       H  0.56108812  0.61907267  0.32978151     0.16200
H1350       H  0.56105514  0.68210751  0.37608436     0.12100
H1351       H  0.43954965  0.68162038  0.37612719     0.15000
H1352       H  0.43982049  0.61735552  0.33140541     0.14800
C1353       C  0.68788822  0.49176110  0.36891041    -0.18100
C1354       C  0.68694726  0.51710375  0.36884673    -0.20300
C1355       C  0.66631595  0.52922605  0.36013601     0.20400
C1356       C  0.64636786  0.51576066  0.35146623    -0.03200
C1357       C  0.64731776  0.49011526  0.35153625    -0.06300
C1358       C  0.66821805  0.47812770  0.36024943     0.20600
C1359       C  0.62752634  0.47650867  0.34265076     0.18800
C1360       C  0.60690229  0.48872047  0.33392835    -0.17800
C1361       C  0.60597470  0.51417405  0.33382867    -0.20000
C1362       C  0.62563711  0.52789975  0.34249161     0.20300
C1363       C  0.62512637  0.55348922  0.34204747    -0.33000
C1364       C  0.64513714  0.56700679  0.35046738     0.01000
C1365       C  0.66551293  0.55460298  0.35967591    -0.24300
C1366       C  0.66930926  0.45272479  0.35984117    -0.28900
C1367       C  0.64987852  0.43893359  0.35067215     0.06700
C1368       C  0.62889747  0.45098881  0.34231772    -0.27600
H1369       H  0.70407673  0.48281893  0.37561061     0.11400
H1370       H  0.70243461  0.52723974  0.37550432     0.12500
H1371       H  0.59153115  0.47857993  0.32702161     0.11600
H1372       H  0.58991313  0.52312696  0.32685156     0.10800
H1373       H  0.60940764  0.56281968  0.33476599     0.16200
H1374       H  0.68110788  0.56470707  0.36615402     0.12100
H1375       H  0.68556724  0.44371349  0.36630235     0.15000
H1376       H  0.61381631  0.44056648  0.33516939     0.14800
C1377       C  0.48892458  0.83792662  0.10086042    -0.18100
C1378       C  0.51437686  0.83781365  0.10006529    -0.20300
C1379       C  0.52801185  0.84713512  0.11951306     0.20400
C1380       C  0.51576457  0.85674063  0.13987912    -0.03200
C1381       C  0.49013122  0.85683502  0.14069005    -0.06300
C1382       C  0.47661116  0.84733758  0.12112645     0.20600
C1383       C  0.47806907  0.86623003  0.16124314     0.18800
C1384       C  0.49159930  0.87549481  0.18069912    -0.17800
C1385       C  0.51690339  0.87541424  0.17989455    -0.20000
C1386       C  0.52910874  0.86606571  0.15962085     0.20300
C1387       C  0.55445493  0.86564931  0.15901080    -0.33000
C1388       C  0.56698971  0.85584667  0.13904752     0.01000
C1389       C  0.55360564  0.84676544  0.11918324    -0.24300
C1390       C  0.45108411  0.84713656  0.12238944    -0.28900
C1391       C  0.43895324  0.85622380  0.14305269     0.06700
C1392       C  0.45269047  0.86593384  0.16223415    -0.27600
H1393       H  0.47886670  0.83052258  0.08566412     0.11400
H1394       H  0.52339489  0.83032858  0.08427938     0.12500
H1395       H  0.48259946  0.88271180  0.19662385     0.11600
H1396       H  0.52694801  0.88257382  0.19521733     0.10800
H1397       H  0.56444430  0.87268753  0.17443763     0.16200
H1398       H  0.56303431  0.83904112  0.10374746     0.12100
H1399       H  0.44071751  0.83952374  0.10749679     0.15000
H1400       H  0.44364187  0.87293546  0.17823876     0.14800
C1401       C  0.61939004  0.01475118  0.17480917    -0.18100
C1402       C  0.61868258  0.98940097  0.17376661    -0.20300
C1403       C  0.63287816  0.97679933  0.15680063     0.20400
C1404       C  0.64766288  0.98985531  0.14044514    -0.03200
C1405       C  0.64818015  0.01544172  0.14132916    -0.06300
C1406       C  0.63419359  0.02789791  0.15880708     0.20600
C1407       C  0.66303653  0.02851024  0.12505998     0.18800
C1408       C  0.67709192  0.01592391  0.10795424    -0.17800
C1409       C  0.67681100  0.99052959  0.10728028    -0.20000
C1410       C  0.66231517  0.97734227  0.12356735     0.20300
C1411       C  0.66260940  0.95187349  0.12365726    -0.33000
C1412       C  0.64817828  0.93877808  0.14015834     0.01000
C1413       C  0.63299855  0.95135916  0.15632615    -0.24300
C1414       C  0.63558232  0.05324383  0.16028515    -0.28900
C1415       C  0.65060605  0.06633410  0.14438810     0.06700
C1416       C  0.66395756  0.05389331  0.12653099    -0.27600
H1417       H  0.60851122  0.02406864  0.18828160     0.11400
H1418       H  0.60727489  0.97962590  0.18646361     0.12500
H1419       H  0.68857633  0.02570836  0.09533099     0.11600
H1420       H  0.68809896  0.98119440  0.09416352     0.10800
H1421       H  0.67428487  0.94222280  0.11109820     0.16200
H1422       H  0.62202778  0.94134336  0.16924211     0.12100
H1423       H  0.62509329  0.06277418  0.17393664     0.15000
H1424       H  0.67563473  0.06389469  0.11424038     0.14800
C1425       C  0.63455617  0.73114078  0.20227445    -0.18100
C1426       C  0.63412759  0.71263936  0.21973577    -0.20300
C1427       C  0.63268007  0.71829769  0.24455193     0.20400
C1428       C  0.63195327  0.74287978  0.25182484    -0.03200
C1429       C  0.63274502  0.76154641  0.23423290    -0.06300
C1430       C  0.63375491  0.75563406  0.20932542     0.20600
C1431       C  0.63248813  0.78611208  0.24159197     0.18800
C1432       C  0.63138058  0.79180109  0.26638455    -0.17800
C1433       C  0.63025210  0.77332665  0.28377504    -0.20000
C1434       C  0.63044225  0.74884435  0.27668406     0.20300
C1435       C  0.62929132  0.73025529  0.29405630    -0.33000
C1436       C  0.63016469  0.70569596  0.28704732     0.01000
C1437       C  0.63201515  0.69985690  0.26222554    -0.24300
C1438       C  0.63395352  0.77431878  0.19195572    -0.28900
C1439       C  0.63372571  0.79882154  0.19920986     0.06700
C1440       C  0.63327046  0.80456367  0.22405375    -0.27600
H1441       H  0.63551358  0.72628431  0.18323827     0.11400
H1442       H  0.63478601  0.69388535  0.21381601     0.12500
H1443       H  0.63122567  0.81056085  0.27232878     0.11600
H1444       H  0.62926085  0.77819596  0.30280524     0.10800
H1445       H  0.62827140  0.73493796  0.31314606     0.16200
H1446       H  0.63280309  0.68098418  0.25667260     0.12100
H1447       H  0.63472124  0.76982073  0.17280774     0.15000
H1448       H  0.63316035  0.82342585  0.22971876     0.14800
C1449       C  0.89080891  0.51203249  0.16896232    -0.18100
C1450       C  0.89132932  0.48664766  0.16880495    -0.20300
C1451       C  0.87447801  0.47350667  0.15496575     0.20400
C1452       C  0.85698670  0.48605556  0.14103106    -0.03200
C1453       C  0.85626615  0.51165839  0.14143782    -0.06300
C1454       C  0.87331937  0.52467644  0.15542344     0.20600
C1455       C  0.83834062  0.52419552  0.12807964     0.18800
C1456       C  0.82149396  0.51104058  0.11421003    -0.17800
C1457       C  0.82239630  0.48566048  0.11356140    -0.20000
C1458       C  0.84002124  0.47303027  0.12694465     0.20300
C1459       C  0.84068086  0.44759918  0.12687149    -0.33000
C1460       C  0.85763578  0.43500917  0.14122281     0.01000
C1461       C  0.87455137  0.44804941  0.15513230    -0.24300
C1462       C  0.87241696  0.55009869  0.15589522    -0.28900
C1463       C  0.85442251  0.56273696  0.14292308     0.06700
C1464       C  0.83744458  0.54964007  0.12902456    -0.27600
H1465       H  0.90397980  0.52178360  0.17983961     0.11400
H1466       H  0.90486932  0.47728700  0.17958059     0.12500
H1467       H  0.80759994  0.52038365  0.10387955     0.11600
H1468       H  0.80917388  0.47589831  0.10275448     0.10800
H1469       H  0.82738534  0.43758701  0.11636074     0.16200
H1470       H  0.88764183  0.43836537  0.16620387     0.12100
H1471       H  0.88538127  0.56001896  0.16688736     0.15000
H1472       H  0.82347062  0.55923798  0.11901817     0.14800
C1473       C  0.01372782  0.61062674  0.17028887    -0.18100
C1474       C  0.98830577  0.61055863  0.17057260    -0.20300
C1475       C  0.97515958  0.62821354  0.15768680     0.20400
C1476       C  0.98780622  0.64607965  0.14433588    -0.03200
C1477       C  0.01347626  0.64634489  0.14432249    -0.06300
C1478       C  0.02649569  0.62850201  0.15732051     0.20600
C1479       C  0.02607858  0.66462262  0.13151333     0.18800
C1480       C  0.01294785  0.68227211  0.11863003    -0.17800
C1481       C  0.98756280  0.68184294  0.11840480    -0.20000
C1482       C  0.97482396  0.66384177  0.13117795     0.20300
C1483       C  0.94934799  0.66347836  0.13122295    -0.33000
C1484       C  0.93658161  0.64598820  0.14476745     0.01000
C1485       C  0.94963367  0.62846036  0.15805759    -0.24300
C1486       C  0.05201276  0.62910768  0.15747756    -0.28900
C1487       C  0.06475207  0.64762280  0.14519741     0.06700
C1488       C  0.05155867  0.66517873  0.13208863    -0.27600
H1489       H  0.02341382  0.59681096  0.18041670     0.11400
H1490       H  0.97892019  0.59668795  0.18089993     0.12500
H1491       H  0.02232361  0.69646644  0.10874213     0.11600
H1492       H  0.97787856  0.69569724  0.10832751     0.10800
H1493       H  0.93942648  0.67729022  0.12129197     0.16200
H1494       H  0.93990418  0.61498712  0.16861444     0.12100
H1495       H  0.06191932  0.61554317  0.16774677     0.15000
H1496       H  0.06111644  0.67947810  0.12251172     0.14800
C1497       C  0.72623223  0.61705684  0.20766827    -0.18100
C1498       C  0.70884065  0.61721426  0.22617785    -0.20300
C1499       C  0.71573490  0.62150543  0.25034010     0.20400
C1500       C  0.74046573  0.62486466  0.25603755    -0.03200
C1501       C  0.75802983  0.62431413  0.23744496    -0.06300
C1502       C  0.75082366  0.62093386  0.21306514     0.20600
C1503       C  0.78273306  0.62780562  0.24320265     0.18800
C1504       C  0.78970224  0.63156162  0.26739953    -0.17800
C1505       C  0.77226275  0.63247788  0.28576018    -0.20000
C1506       C  0.74761486  0.62941894  0.28022711     0.20300
C1507       C  0.72997387  0.63139868  0.29839006    -0.33000
C1508       C  0.70526683  0.62861698  0.29278395     0.01000
C1509       C  0.69830946  0.62314326  0.26880723    -0.24300
C1510       C  0.76829140  0.62203727  0.19453940    -0.28900
C1511       C  0.79285948  0.62580866  0.20025948     0.06700
C1512       C  0.79999447  0.62812545  0.22460975    -0.27600
H1513       H  0.72041084  0.61421356  0.18909558     0.11400
H1514       H  0.68993198  0.61448392  0.22152513     0.12500
H1515       H  0.80861363  0.63426341  0.27206491     0.11600
H1516       H  0.77802971  0.63587194  0.30425736     0.10800
H1517       H  0.73547628  0.63534976  0.31687119     0.16200
H1518       H  0.67927034  0.62096224  0.26435349     0.12100
H1519       H  0.76283595  0.62001992  0.17573397     0.15000
H1520       H  0.81894007  0.63117496  0.22899795     0.14800
C1521       C  0.71262689  0.72915597  0.12281372    -0.18100
C1522       C  0.73076421  0.71144118  0.12347056    -0.20300
C1523       C  0.75514094  0.71809932  0.12653178     0.20400
C1524       C  0.76131283  0.74282973  0.12929982    -0.03200
C1525       C  0.74304324  0.76074762  0.12826540    -0.06300
C1526       C  0.71860716  0.75382095  0.12496646     0.20600
C1527       C  0.74923025  0.78555174  0.13037124     0.18800
C1528       C  0.77352748  0.79214114  0.13426469    -0.17800
C1529       C  0.79161516  0.77433357  0.13561329    -0.20000
C1530       C  0.78572937  0.74966134  0.13289489     0.20300
C1531       C  0.80381351  0.73171096  0.13349971    -0.33000
C1532       C  0.79783609  0.70707398  0.13008241     0.01000
C1533       C  0.77343826  0.70044266  0.12674165    -0.24300
C1534       C  0.70056470  0.77166285  0.12378392    -0.28900
C1535       C  0.70664610  0.79637989  0.12524146     0.06700
C1536       C  0.73099201  0.80326203  0.12854456    -0.27600
H1537       H  0.69393115  0.72357551  0.12036886     0.11400
H1538       H  0.72572972  0.69251831  0.12149392     0.12500
H1539       H  0.77855615  0.81107510  0.13617273     0.11600
H1540       H  0.81025425  0.77988008  0.13851764     0.10800
H1541       H  0.82257606  0.73695256  0.13624629     0.16200
H1542       H  0.76864394  0.68146891  0.12453461     0.12100
H1543       H  0.68176373  0.76634208  0.12143448     0.15000
H1544       H  0.73562237  0.82233458  0.13023745     0.14800
C1545       C  0.01403653  0.82199717  0.38200195    -0.18100
C1546       C  0.98868391  0.82095683  0.38077960    -0.20300
C1547       C  0.97565222  0.83836418  0.36745258     0.20400
C1548       C  0.98829359  0.85721636  0.35554482    -0.03200
C1549       C  0.01390378  0.85807235  0.35649492    -0.06300
C1550       C  0.02682409  0.84030171  0.36969381     0.20600
C1551       C  0.02657988  0.87632283  0.34369826     0.18800
C1552       C  0.01353279  0.89406897  0.33087844    -0.17800
C1553       C  0.98816491  0.89342994  0.33023519    -0.20000
C1554       C  0.97539936  0.87492601  0.34224304     0.20300
C1555       C  0.95001188  0.87360891  0.34080277    -0.33000
C1556       C  0.93726634  0.85456854  0.35212140     0.01000
C1557       C  0.95025995  0.83706858  0.36553694    -0.24300
C1558       C  0.05229871  0.84063885  0.36962979    -0.28900
C1559       C  0.06503754  0.85798761  0.35583942     0.06700
C1560       C  0.05205361  0.87604452  0.34329481    -0.27600
H1561       H  0.02367355  0.80820125  0.39220508     0.11400
H1562       H  0.97927580  0.80640670  0.39010476     0.12500
H1563       H  0.02296657  0.90828069  0.32107072     0.11600
H1564       H  0.97853450  0.90720248  0.31999515     0.10800
H1565       H  0.94022513  0.88711794  0.33034317     0.16200
H1566       H  0.94062936  0.82237254  0.37441697     0.12100
H1567       H  0.06219921  0.82660042  0.37925841     0.15000
H1568       H  0.06179212  0.88957738  0.33281938     0.14800
C1569       C  0.88812527  0.98886435  0.32258417    -0.18100
C1570       C  0.88856754  0.01425285  0.32328296    -0.20300
C1571       C  0.87237234  0.02705533  0.33819820     0.20400
C1572       C  0.85559458  0.01417509  0.35262450    -0.03200
C1573       C  0.85535605  0.98852347  0.35215004    -0.06300
C1574       C  0.87160554  0.97583294  0.33692359     0.20600
C1575       C  0.83875301  0.97560751  0.36674891     0.18800
C1576       C  0.82237312  0.98842781  0.38146930    -0.17800
C1577       C  0.82239271  0.01385762  0.38168871    -0.20000
C1578       C  0.83894424  0.02690790  0.36736555     0.20300
C1579       C  0.83901859  0.05243480  0.36735618    -0.33000
C1580       C  0.85577083  0.06539983  0.35306369     0.01000
C1581       C  0.87250614  0.05251399  0.33869951    -0.24300
C1582       C  0.87091596  0.95036325  0.33612586    -0.28900
C1583       C  0.85448556  0.93736401  0.35066789     0.06700
C1584       C  0.83863097  0.95012347  0.36613612    -0.27600
H1585       H  0.90071577  0.97941325  0.31080433     0.11400
H1586       H  0.90150051  0.02389260  0.31202993     0.12500
H1587       H  0.80943174  0.97878154  0.39270944     0.11600
H1588       H  0.80946509  0.02332181  0.39308566     0.10800
H1589       H  0.82600749  0.06220268  0.37841582     0.16200
H1590       H  0.88527600  0.06231165  0.32737577     0.12100
H1591       H  0.88318837  0.94063946  0.32421064     0.15000
H1592       H  0.82571160  0.94023143  0.37720991     0.14800
C1593       C  0.76883755  0.71542595  0.37644983    -0.18100
C1594       C  0.78689570  0.73321082  0.37765110    -0.20300
C1595       C  0.78100386  0.75780016  0.37447937     0.20400
C1596       C  0.75664485  0.76458789  0.37032111    -0.03200
C1597       C  0.73847036  0.74666766  0.36901863    -0.06300
C1598       C  0.74463551  0.72196954  0.37201437     0.20600
C1599       C  0.71421216  0.75344298  0.36433027     0.18800
C1600       C  0.70824543  0.77804877  0.36151097    -0.17800
C1601       C  0.72626460  0.79582801  0.36284749    -0.20000
C1602       C  0.75050168  0.78923692  0.36695930     0.20300
C1603       C  0.76878150  0.80681721  0.36712707    -0.33000
C1604       C  0.79314027  0.80012064  0.37057538     0.01000
C1605       C  0.79910162  0.77566333  0.37475923    -0.24300
C1606       C  0.72653233  0.70423364  0.37025440    -0.28900
C1607       C  0.70242987  0.71085711  0.36521510     0.06700
C1608       C  0.69638293  0.73547885  0.36231279    -0.27600
H1609       H  0.77383300  0.69652936  0.37877278     0.11400
H1610       H  0.80550679  0.72771334  0.38082344     0.12500
H1611       H  0.68967991  0.78352046  0.35802927     0.11600
H1612       H  0.72129853  0.81470880  0.36032284     0.10800
H1613       H  0.76408828  0.82570618  0.36407674     0.16200
H1614       H  0.81789494  0.77042944  0.37732201     0.12100
H1615       H  0.73127827  0.68523758  0.37239324     0.15000
H1616       H  0.67777161  0.74067507  0.35857998     0.14800
C1617       C  0.71494941  0.88186665  0.26342175    -0.18100
C1618       C  0.73251182  0.88141443  0.28179528    -0.20300
C1619       C  0.75673223  0.87566269  0.27638637     0.20400
C1620       C  0.76321018  0.86991008  0.25227108    -0.03200
C1621       C  0.74549512  0.87034952  0.23374373    -0.06300
C1622       C  0.72128641  0.87654807  0.23931788     0.20600
C1623       C  0.75204768  0.86464426  0.20964771     0.18800
C1624       C  0.77612832  0.85836979  0.20429766    -0.17800
C1625       C  0.79366480  0.85796132  0.22263018    -0.20000
C1626       C  0.78741201  0.86380588  0.24661732     0.20300
C1627       C  0.80498468  0.86371063  0.26500144    -0.33000
C1628       C  0.79883070  0.86977472  0.28904862     0.01000
C1629       C  0.77459097  0.87562494  0.29461473    -0.24300
C1630       C  0.70386423  0.87726204  0.22071114    -0.28900
C1631       C  0.71028984  0.87164484  0.19661812     0.06700
C1632       C  0.73443335  0.86526681  0.19130554    -0.27600
H1633       H  0.69641178  0.88648814  0.26805577     0.11400
H1634       H  0.72717127  0.88570843  0.30022665     0.12500
H1635       H  0.78142237  0.85384696  0.18590406     0.11600
H1636       H  0.81216288  0.85315126  0.21802325     0.10800
H1637       H  0.82355062  0.85901368  0.26050627     0.16200
H1638       H  0.76958693  0.87998694  0.31313488     0.12100
H1639       H  0.68524724  0.88189014  0.22505246     0.15000
H1640       H  0.73956314  0.86075161  0.17285125     0.14800
C1641       C  0.84803746  0.71018338  0.26998791    -0.18100
C1642       C  0.84771169  0.72846474  0.28758820    -0.20300
C1643       C  0.85790948  0.75130704  0.28268666     0.20400
C1644       C  0.86831600  0.75588892  0.25974469    -0.03200
C1645       C  0.86862891  0.73743545  0.24196636    -0.06300
C1646       C  0.85852692  0.71445834  0.24718303     0.20600
C1647       C  0.87906215  0.74197184  0.21902197     0.18800
C1648       C  0.88890361  0.76495063  0.21399389    -0.17800
C1649       C  0.88860988  0.78323887  0.23162696    -0.20000
C1650       C  0.87848453  0.77885514  0.25459372     0.20300
C1651       C  0.87847147  0.79696798  0.27253013    -0.33000
C1652       C  0.86844890  0.79241908  0.29559142     0.01000
C1653       C  0.85799448  0.76957521  0.30039344    -0.24300
C1654       C  0.85897540  0.69617940  0.22949543    -0.28900
C1655       C  0.86934210  0.70051930  0.20656752     0.06700
C1656       C  0.87937891  0.72349414  0.20149356    -0.27600
H1657       H  0.84011540  0.69267122  0.27423309     0.11400
H1658       H  0.83957257  0.72469727  0.30509318     0.12500
H1659       H  0.89689357  0.76876512  0.19643124     0.11600
H1660       H  0.89640668  0.80079084  0.22733261     0.10800
H1661       H  0.88632175  0.81457577  0.26853451     0.16200
H1662       H  0.84997997  0.76592032  0.31799184     0.12100
H1663       H  0.85104283  0.67861537  0.23355169     0.15000
H1664       H  0.88726149  0.72709830  0.18382834     0.14800
C1665       C  0.16511131  0.39668210  0.01034969    -0.18100
C1666       C  0.16509189  0.39689111  0.98494130    -0.20300
C1667       C  0.15458585  0.37769154  0.97187828     0.20400
C1668       C  0.14329032  0.35847890  0.98453146    -0.03200
C1669       C  0.14301152  0.35843640  0.01016580    -0.06300
C1670       C  0.15441857  0.37738463  0.02312805     0.20600
C1671       C  0.13192843  0.33907995  0.02280072     0.18800
C1672       C  0.12103069  0.32011147  0.00973972    -0.17800
C1673       C  0.12157056  0.32000743  0.98435917    -0.20000
C1674       C  0.13285858  0.33896590  0.97160811     0.20300
C1675       C  0.13447399  0.33840074  0.94621096    -0.33000
C1676       C  0.14635795  0.35710833  0.93348111     0.01000
C1677       C  0.15583385  0.37700250  0.94644149    -0.24300
C1678       C  0.15550301  0.37633305  0.04858438    -0.28900
C1679       C  0.14487356  0.35684834  0.06123418     0.06700
C1680       C  0.13258623  0.33863586  0.04824991    -0.27600
H1681       H  0.17379362  0.41145831  0.02000992     0.11400
H1682       H  0.17375442  0.41182982  0.97550577     0.12500
H1683       H  0.11247046  0.30510966  0.01916990     0.11600
H1684       H  0.11342260  0.30492536  0.97470398     0.10800
H1685       H  0.12691680  0.32309807  0.93640112     0.16200
H1686       H  0.16496404  0.39155039  0.93682068     0.12100
H1687       H  0.16487849  0.39048003  0.05856344     0.15000
H1688       H  0.12454880  0.32348002  0.05792381     0.14800
C1689       C  0.35247797  0.10617892  0.98479463    -0.18100
C1690       C  0.35316857  0.10619374  0.01021037    -0.20300
C1691       C  0.35699685  0.12790373  0.02301412     0.20400
C1692       C  0.36049470  0.14975291  0.01004219    -0.03200
C1693       C  0.35972155  0.14975118  0.98443575    -0.06300
C1694       C  0.35557049  0.12787944  0.97174154     0.20600
C1695       C  0.36279957  0.17170862  0.97157494     0.18800
C1696       C  0.36677330  0.19339722  0.98432142    -0.17800
C1697       C  0.36759784  0.19339049  0.00965664    -0.20000
C1698       C  0.36439819  0.17170490  0.02264297     0.20300
C1699       C  0.36452638  0.17174169  0.04802671    -0.33000
C1700       C  0.36036137  0.15021895  0.06115856     0.01000
C1701       C  0.35690626  0.12827195  0.04852169    -0.24300
C1702       C  0.35431901  0.12817128  0.94626397    -0.28900
C1703       C  0.35718672  0.15007247  0.93334174     0.06700
C1704       C  0.36159409  0.17170046  0.94619669    -0.27600
H1705       H  0.34932150  0.08921136  0.97534693     0.11400
H1706       H  0.35049911  0.08924668  0.01985958     0.12500
H1707       H  0.36912339  0.21040417  0.97469097     0.11600
H1708       H  0.37053918  0.21039746  0.01910788     0.10800
H1709       H  0.36711571  0.18877774  0.05754974     0.16200
H1710       H  0.35374429  0.11159079  0.05849985     0.12100
H1711       H  0.35092484  0.11140043  0.93653119     0.15000
H1712       H  0.36373180  0.18869271  0.93647148     0.14800
C1713       C  0.27170517  0.29039294  0.84995794    -0.18100
C1714       C  0.28986862  0.27262647  0.84918317    -0.20300
C1715       C  0.28514379  0.24886095  0.85719027     0.20400
C1716       C  0.26184479  0.24289820  0.86593289    -0.03200
C1717       C  0.24339678  0.26075756  0.86641140    -0.06300
C1718       C  0.24842473  0.28466544  0.85856213     0.20600
C1719       C  0.21990095  0.25464221  0.87459772     0.18800
C1720       C  0.21522429  0.23090908  0.88267211    -0.17800
C1721       C  0.23358966  0.21332974  0.88253079    -0.20000
C1722       C  0.25692648  0.21907796  0.87409315     0.20300
C1723       C  0.27535513  0.20140381  0.87355949    -0.33000
C1724       C  0.29862983  0.20712875  0.86472597     0.01000
C1725       C  0.30329300  0.23096698  0.85654218    -0.24300
C1726       C  0.23002812  0.30233205  0.85926375    -0.28900
C1727       C  0.20648886  0.29620128  0.86694517     0.06700
C1728       C  0.20148980  0.27231773  0.87442898    -0.27600
H1729       H  0.27583864  0.30860017  0.84371108     0.11400
H1730       H  0.30765374  0.27749879  0.84236431     0.12500
H1731       H  0.19732970  0.22592729  0.88910944     0.11600
H1732       H  0.22947993  0.19515787  0.88887920     0.10800
H1733       H  0.27148959  0.18313391  0.87980626     0.16200
H1734       H  0.32111594  0.23567695  0.84968298     0.12100
H1735       H  0.23379350  0.32069533  0.85318893     0.15000
H1736       H  0.18332866  0.26761661  0.88035677     0.14800
C1737       C  0.39858546  0.33950711  0.51074447    -0.18100
C1738       C  0.39882967  0.33895823  0.48531915    -0.20300
C1739       C  0.37878851  0.34736195  0.47198414     0.20400
C1740       C  0.35829563  0.35635777  0.48446125    -0.03200
C1741       C  0.35804985  0.35691655  0.51007976    -0.06300
C1742       C  0.37828490  0.34843595  0.52328925     0.20600
C1743       C  0.33744464  0.36576356  0.52244680     0.18800
C1744       C  0.31731999  0.37396695  0.50919347    -0.17800
C1745       C  0.31756146  0.37341051  0.48385432    -0.20000
C1746       C  0.33794503  0.36468060  0.47136378     0.20300
C1747       C  0.33820215  0.36405685  0.44598796    -0.33000
C1748       C  0.35849058  0.35517476  0.43328011     0.01000
C1749       C  0.37877816  0.34683327  0.44644143    -0.24300
C1750       C  0.37766758  0.34864350  0.54877734    -0.28900
C1751       C  0.35698235  0.35705675  0.56121604     0.06700
C1752       C  0.33709870  0.36587830  0.54785296    -0.27600
H1753       H  0.41425001  0.33284750  0.52060327     0.11400
H1754       H  0.41469249  0.33192310  0.47608244     0.12500
H1755       H  0.30133553  0.38072489  0.51843270     0.11600
H1756       H  0.30176933  0.37978878  0.47401246     0.10800
H1757       H  0.32239385  0.37038695  0.43612391     0.16200
H1758       H  0.39441904  0.33973844  0.43685889     0.12100
H1759       H  0.39306039  0.34171096  0.55889118     0.15000
H1760       H  0.32104957  0.37234799  0.55720688     0.14800
C1761       C  0.34728391  0.22996696  0.70827764    -0.18100
C1762       C  0.34734598  0.21213662  0.72634860    -0.20300
C1763       C  0.35929975  0.21626374  0.74845970     0.20400
C1764       C  0.37114204  0.23860695  0.75253877    -0.03200
C1765       C  0.37110670  0.25656494  0.73431513    -0.06300
C1766       C  0.35920147  0.25217342  0.71205259     0.20600
C1767       C  0.38300732  0.27888523  0.73837848     0.18800
C1768       C  0.39466423  0.28313461  0.76061546    -0.17800
C1769       C  0.39468361  0.26533082  0.77869687    -0.20000
C1770       C  0.38305400  0.24300691  0.77480130     0.20300
C1771       C  0.38313865  0.22501184  0.79277245    -0.33000
C1772       C  0.37152882  0.20264103  0.78874624     0.01000
C1773       C  0.35960532  0.19843505  0.76655901    -0.24300
C1774       C  0.35940891  0.27007591  0.69397800    -0.28900
C1775       C  0.37135554  0.29232933  0.69788316     0.06700
C1776       C  0.38304334  0.29659509  0.72015873    -0.27600
H1777       H  0.33797732  0.22636508  0.69132320     0.11400
H1778       H  0.33809114  0.19509191  0.72301050     0.12500
H1779       H  0.40381544  0.30022239  0.76400643     0.11600
H1780       H  0.40385002  0.26899918  0.79570982     0.10800
H1781       H  0.39224740  0.22844087  0.80987898     0.16200
H1782       H  0.35041222  0.18131314  0.76338470     0.12100
H1783       H  0.35013043  0.26672269  0.67694313     0.15000
H1784       H  0.39214386  0.31375260  0.72338510     0.14800
C1785       C  0.21604291  0.37986769  0.72940303    -0.18100
C1786       C  0.23371712  0.37879659  0.71123741    -0.20300
C1787       C  0.25788970  0.37335979  0.71711364     0.20400
C1788       C  0.26420727  0.36826622  0.74142375    -0.03200
C1789       C  0.24640901  0.36939322  0.75973414    -0.06300
C1790       C  0.22227538  0.37552304  0.75371664     0.20600
C1791       C  0.25281980  0.36458725  0.78406734     0.18800
C1792       C  0.27679216  0.35826975  0.78984725    -0.17800
C1793       C  0.29443731  0.35714299  0.77168750    -0.20000
C1794       C  0.28836656  0.36234842  0.74749979     0.20300
C1795       C  0.30610817  0.36207060  0.72934450    -0.33000
C1796       C  0.30011788  0.36793337  0.70521764     0.01000
C1797       C  0.27590909  0.37323852  0.69917425    -0.24300
C1798       C  0.20481104  0.37716898  0.77210980    -0.28900
C1799       C  0.21113361  0.37252519  0.79639088     0.06700
C1800       C  0.23515150  0.36615636  0.80220516    -0.27600
H1801       H  0.19753836  0.38432871  0.72446384     0.11400
H1802       H  0.22853424  0.38249977  0.69262392     0.12500
H1803       H  0.28192616  0.35435647  0.80843579     0.11600
H1804       H  0.31289012  0.35243639  0.77659609     0.10800
H1805       H  0.32469465  0.35770106  0.73410585     0.16200
H1806       H  0.27109361  0.37729176  0.68052203     0.12100
H1807       H  0.18622386  0.38165582  0.76746614     0.15000
H1808       H  0.24011435  0.36233902  0.82087261     0.14800
C1809       C  0.11015711  0.16836317  0.48478767    -0.18100
C1810       C  0.10988334  0.16839780  0.51019056    -0.20300
C1811       C  0.12852856  0.15705136  0.52334220     0.20400
C1812       C  0.14750370  0.14531499  0.51074563    -0.03200
C1813       C  0.14782524  0.14535186  0.48511596    -0.06300
C1814       C  0.12912078  0.15704472  0.47209463     0.20600
C1815       C  0.16711959  0.13412504  0.47255763     0.18800
C1816       C  0.18562125  0.12253326  0.48568466    -0.17800
C1817       C  0.18526680  0.12243174  0.51106421    -0.20000
C1818       C  0.16643078  0.13396780  0.52373674     0.20300
C1819       C  0.16651573  0.13482424  0.54915728    -0.33000
C1820       C  0.14799618  0.14697903  0.56187883     0.01000
C1821       C  0.12882629  0.15770215  0.54882906    -0.24300
C1822       C  0.13000406  0.15772260  0.44664551    -0.28900
C1823       C  0.14957099  0.14722009  0.43401110     0.06700
C1824       C  0.16787272  0.13514713  0.44712952    -0.27600
H1825       H  0.09567110  0.17745003  0.47506297     0.11400
H1826       H  0.09519431  0.17751224  0.51955704     0.12500
H1827       H  0.20053077  0.11377970  0.47632073     0.11600
H1828       H  0.19990837  0.11359968  0.52079059     0.10800
H1829       H  0.18131757  0.12640872  0.55903130     0.16200
H1830       H  0.11453008  0.16719012  0.55845137     0.12100
H1831       H  0.11583059  0.16711657  0.43673262     0.15000
H1832       H  0.18296138  0.12689482  0.43757825     0.14800
C1833       C  0.10776278  0.24098251  0.77859642    -0.18100
C1834       C  0.10773204  0.22276420  0.76091332    -0.20300
C1835       C  0.11938610  0.22647173  0.73857548     0.20400
C1836       C  0.13086302  0.24891394  0.73385824    -0.03200
C1837       C  0.13094970  0.26727356  0.75172481    -0.06300
C1838       C  0.11949632  0.26318915  0.77425834     0.20600
C1839       C  0.14283257  0.28953205  0.74718305     0.18800
C1840       C  0.15417745  0.29338561  0.72470366    -0.17800
C1841       C  0.15403753  0.27521576  0.70697278    -0.20000
C1842       C  0.14258409  0.25288696  0.71145010     0.20300
C1843       C  0.14297292  0.23434989  0.69404420    -0.33000
C1844       C  0.13197280  0.21174380  0.69875614     0.01000
C1845       C  0.12004574  0.20802656  0.72102169    -0.24300
C1846       C  0.12033611  0.28118897  0.79222638    -0.28900
C1847       C  0.13258509  0.30322812  0.78806213     0.06700
C1848       C  0.14352798  0.30736945  0.76534080    -0.27600
H1849       H  0.09882942  0.23759703  0.79578653     0.11400
H1850       H  0.09876913  0.20568057  0.76479785     0.12500
H1851       H  0.16335408  0.31037911  0.72091435     0.11600
H1852       H  0.16309875  0.27854176  0.68983479     0.10800
H1853       H  0.15225549  0.23742193  0.67696522     0.16200
H1854       H  0.11145032  0.19071913  0.72479539     0.12100
H1855       H  0.11175706  0.27784516  0.80961435     0.15000
H1856       H  0.15299727  0.32429196  0.76191429     0.14800
C1857       C  0.29017145  0.11698878  0.72840202    -0.18100
C1858       C  0.27203495  0.11805779  0.71060780    -0.20300
C1859       C  0.24773553  0.12213606  0.71710641     0.20400
C1860       C  0.24158138  0.12461465  0.74183566    -0.03200
C1861       C  0.25987470  0.12341112  0.75980785    -0.06300
C1862       C  0.28433960  0.11990717  0.75303911     0.20600
C1863       C  0.25373955  0.12637824  0.78448068     0.18800
C1864       C  0.22937625  0.12979123  0.79105254    -0.17800
C1865       C  0.21129266  0.13106677  0.77326647    -0.20000
C1866       C  0.21723840  0.12886850  0.74859395     0.20300
C1867       C  0.19934415  0.13127451  0.73057490    -0.33000
C1868       C  0.20536125  0.12920591  0.70582975     0.01000
C1869       C  0.22957893  0.12424242  0.69930224    -0.24300
C1870       C  0.30257283  0.12013748  0.77093337    -0.28900
C1871       C  0.29665940  0.12413033  0.79548346     0.06700
C1872       C  0.27211209  0.12666039  0.80209896    -0.27600
H1873       H  0.30882540  0.11422865  0.72285144     0.11400
H1874       H  0.27707805  0.11605339  0.69170559     0.12500
H1875       H  0.22435352  0.13194796  0.80994469     0.11600
H1876       H  0.19268156  0.13413937  0.77879867     0.10800
H1877       H  0.18072881  0.13485426  0.73582156     0.16200
H1878       H  0.23442940  0.12262062  0.68030219     0.12100
H1879       H  0.32140835  0.11816723  0.76562916     0.15000
H1880       H  0.26730735  0.12950420  0.82096844     0.14800
C1881       C  0.21122163  0.27333199  0.61975069    -0.18100
C1882       C  0.22849045  0.29197753  0.61992104    -0.20300
C1883       C  0.25325078  0.28656535  0.62248284     0.20400
C1884       C  0.26069142  0.26211986  0.62475104    -0.03200
C1885       C  0.24326606  0.24337525  0.62496359    -0.06300
C1886       C  0.21841819  0.24900351  0.62239502     0.20600
C1887       C  0.25071831  0.21902889  0.62802955     0.18800
C1888       C  0.27545991  0.21359122  0.63043259    -0.17800
C1889       C  0.29275004  0.23212172  0.62987788    -0.20000
C1890       C  0.28554387  0.25638871  0.62710429     0.20300
C1891       C  0.30276931  0.27503009  0.62697246    -0.33000
C1892       C  0.29548085  0.29937303  0.62521625     0.01000
C1893       C  0.27071568  0.30510953  0.62306358    -0.24300
C1894       C  0.20122162  0.23022228  0.62286982    -0.28900
C1895       C  0.20853964  0.20597862  0.62640841     0.06700
C1896       C  0.23330599  0.20054407  0.62891290    -0.27600
H1897       H  0.19221092  0.27795789  0.61779679     0.11400
H1898       H  0.22247848  0.31062994  0.61809817     0.12500
H1899       H  0.28144188  0.19498844  0.63279684     0.11600
H1900       H  0.31176070  0.22748957  0.63182312     0.10800
H1901       H  0.32185168  0.27066036  0.62902204     0.16200
H1902       H  0.26511475  0.32394585  0.62172668     0.12100
H1903       H  0.18210411  0.23453598  0.62113458     0.15000
H1904       H  0.23904178  0.18188311  0.63153817     0.14800
C1905       C  0.38970193  0.51359504  0.67441438    -0.18100
C1906       C  0.38912895  0.48818723  0.67495041    -0.20300
C1907       C  0.37348057  0.47529781  0.65952324     0.20400
C1908       C  0.35847136  0.48812942  0.64317048    -0.03200
C1909       C  0.35884545  0.51375532  0.64282769    -0.06300
C1910       C  0.37450267  0.52654858  0.65857522     0.20600
C1911       C  0.34319373  0.52655726  0.62708599     0.18800
C1912       C  0.32777552  0.51368376  0.61141937    -0.17800
C1913       C  0.32763066  0.48829528  0.61153663    -0.20000
C1914       C  0.34276530  0.47538615  0.62745257     0.20300
C1915       C  0.34214244  0.44997285  0.62820636    -0.33000
C1916       C  0.35660114  0.43708002  0.64484111     0.01000
C1917       C  0.37230801  0.44984590  0.66039033    -0.24300
C1918       C  0.37419642  0.55204747  0.65867536    -0.28900
C1919       C  0.35798854  0.56487737  0.64368462     0.06700
C1920       C  0.34279527  0.55199651  0.62770422    -0.27600
H1921       H  0.40180109  0.52313145  0.68664321     0.11400
H1922       H  0.40081526  0.47861819  0.68756039     0.12500
H1923       H  0.31567850  0.52325868  0.59920788     0.11600
H1924       H  0.31545406  0.47875514  0.59938488     0.10800
H1925       H  0.32983869  0.44025149  0.61630841     0.16200
H1926       H  0.38356176  0.43997494  0.67318174     0.12100
H1927       H  0.38579775  0.56186840  0.67117831     0.15000
H1928       H  0.33033329  0.56179397  0.61602386     0.14800
C1929       C  0.39168662  0.67503804  0.48707407    -0.18100
C1930       C  0.39083165  0.67527082  0.51247898    -0.20300
C1931       C  0.37501354  0.65971739  0.52503143     0.20400
C1932       C  0.36054992  0.64315128  0.51188050    -0.03200
C1933       C  0.36118903  0.64312610  0.48623785    -0.06300
C1934       C  0.37657845  0.65939636  0.47377130     0.20600
C1935       C  0.34577637  0.62743717  0.47309888     0.18800
C1936       C  0.33076618  0.61112042  0.48564766    -0.17800
C1937       C  0.33036156  0.61092797  0.51103495    -0.20000
C1938       C  0.34482951  0.62717364  0.52430213     0.20300
C1939       C  0.34327532  0.62823865  0.54970820    -0.33000
C1940       C  0.35676460  0.64549350  0.56287367     0.01000
C1941       C  0.37289524  0.66090571  0.55041751    -0.24300
C1942       C  0.37585185  0.66041479  0.44828504    -0.28900
C1943       C  0.35944083  0.64584093  0.43516677     0.06700
C1944       C  0.34494975  0.62895903  0.44769715    -0.27600
H1945       H  0.40371377  0.68755153  0.47781518     0.11400
H1946       H  0.40223199  0.68794236  0.52229904     0.12500
H1947       H  0.31896668  0.59882617  0.47581988     0.11600
H1948       H  0.31828275  0.59845973  0.52028999     0.10800
H1949       H  0.33080390  0.61628731  0.55914836     0.16200
H1950       H  0.38357065  0.67404211  0.56046345     0.12100
H1951       H  0.38714526  0.67342900  0.43876802     0.15000
H1952       H  0.33253177  0.61741722  0.43769517     0.14800
C1953       C  0.19062260  0.51710016  0.86441511    -0.18100
C1954       C  0.19074806  0.49175752  0.86505742    -0.20300
C1955       C  0.16956029  0.47863908  0.85988749     0.20400
C1956       C  0.14792147  0.49112606  0.85428077    -0.03200
C1957       C  0.14777262  0.51677095  0.85371812    -0.06300
C1958       C  0.16928410  0.52973109  0.85868491     0.20600
C1959       C  0.12626527  0.52940163  0.84783867     0.18800
C1960       C  0.10501942  0.51620680  0.84288381    -0.17800
C1961       C  0.10519122  0.49074105  0.84335201    -0.20000
C1962       C  0.12660198  0.47800535  0.84882597     0.20300
C1963       C  0.12727107  0.45243917  0.84843489    -0.33000
C1964       C  0.14900588  0.43990564  0.85351986     0.01000
C1965       C  0.16988139  0.45323632  0.85968858    -0.24300
C1966       C  0.16925174  0.55510010  0.85755243    -0.28900
C1967       C  0.14805287  0.56792485  0.85139045     0.06700
C1968       C  0.12652259  0.55493851  0.84671083    -0.27600
H1969       H  0.20728141  0.52682869  0.86825003     0.11400
H1970       H  0.20750738  0.48240022  0.86934852     0.12500
H1971       H  0.08831909  0.52557620  0.83840242     0.11600
H1972       H  0.08862294  0.48100005  0.83918918     0.10800
H1973       H  0.11104545  0.44235417  0.84373181     0.16200
H1974       H  0.18672662  0.44385662  0.86362052     0.12100
H1975       H  0.18596986  0.56484475  0.86112987     0.15000
H1976       H  0.11008545  0.56464419  0.84194277     0.14800
C1977       C  0.17675279  0.61453317  0.01068004    -0.18100
C1978       C  0.17664445  0.61449060  0.98524398    -0.20300
C1979       C  0.16066027  0.62958421  0.97232059     0.20400
C1980       C  0.14426350  0.64447461  0.98520267    -0.03200
C1981       C  0.14418965  0.64431540  0.01088545    -0.06300
C1982       C  0.16076937  0.62955210  0.02367701     0.20600
C1983       C  0.12790511  0.65935533  0.02373153     0.18800
C1984       C  0.11168222  0.67417590  0.01081673    -0.17800
C1985       C  0.11194490  0.67454181  0.98541867    -0.20000
C1986       C  0.12830563  0.65995057  0.97245575     0.20300
C1987       C  0.12932711  0.66098288  0.94701375    -0.33000
C1988       C  0.14589426  0.64653953  0.93401022     0.01000
C1989       C  0.16118277  0.63050460  0.94680284    -0.24300
C1990       C  0.16145983  0.63050790  0.04918630    -0.28900
C1991       C  0.14562445  0.64587299  0.06215203     0.06700
C1992       C  0.12854106  0.65982314  0.04923042    -0.27600
H1993       H  0.18954285  0.60300107  0.02019426     0.11400
H1994       H  0.18934260  0.60292041  0.97567628     0.12500
H1995       H  0.09903887  0.68581289  0.02037635     0.11600
H1996       H  0.09950167  0.68645265  0.97590812     0.10800
H1997       H  0.11738918  0.67328104  0.93732065     0.16200
H1998       H  0.17411908  0.61941803  0.93696501     0.12100
H1999       H  0.17459006  0.61955248  0.05893605     0.15000
H2000       H  0.11632366  0.67177489  0.05897628     0.14800
C2001       C  0.29165907  0.63477914  0.76878617    -0.18100
C2002       C  0.27430430  0.63689530  0.78718175    -0.20300
C2003       C  0.24946778  0.63599466  0.78163374     0.20400
C2004       C  0.24202681  0.63307020  0.75727913    -0.03200
C2005       C  0.25952989  0.63125041  0.73868471    -0.06300
C2006       C  0.28446185  0.63197333  0.74450946     0.20600
C2007       C  0.25207472  0.62893208  0.71426975     0.18800
C2008       C  0.22724411  0.62807893  0.70870607    -0.17800
C2009       C  0.20990101  0.62951583  0.72717391    -0.20000
C2010       C  0.21710699  0.63199952  0.75148792     0.20300
C2011       C  0.19984237  0.63330684  0.77011981    -0.33000
C2012       C  0.20712579  0.63605185  0.79444335     0.01000
C2013       C  0.23195621  0.63776764  0.80002260    -0.24300
C2014       C  0.30174032  0.63038485  0.72590850    -0.28900
C2015       C  0.29440917  0.62882192  0.70151555     0.06700
C2016       C  0.26956890  0.62793930  0.69582778    -0.27600
H2017       H  0.31072726  0.63551213  0.77353173     0.11400
H2018       H  0.28031472  0.63913533  0.80577663     0.12500
H2019       H  0.22123224  0.62631665  0.69005868     0.11600
H2020       H  0.19083437  0.62874545  0.72243089     0.10800
H2021       H  0.18069671  0.63233702  0.76567970     0.16200
H2022       H  0.23766044  0.63992221  0.81873690     0.12100
H2023       H  0.32089261  0.63137969  0.73032314     0.15000
H2024       H  0.26388066  0.62668768  0.67702277     0.14800
C2025       C  0.38693083  0.01309543  0.81659528    -0.18100
C2026       C  0.38570152  0.98769740  0.81657883    -0.20300
C2027       C  0.37461247  0.97527470  0.83587692     0.20400
C2028       C  0.36550032  0.98851795  0.85581824    -0.03200
C2029       C  0.36648712  0.01414282  0.85571349    -0.06300
C2030       C  0.37693433  0.02648887  0.83583355     0.20600
C2031       C  0.35608127  0.02740269  0.87502110     0.18800
C2032       C  0.34610005  0.01496345  0.89487026    -0.17800
C2033       C  0.34541641  0.98957584  0.89512245    -0.20000
C2034       C  0.35451474  0.97622767  0.87542990     0.20300
C2035       C  0.35194908  0.95090006  0.87459612    -0.33000
C2036       C  0.35976894  0.93767943  0.85418169     0.01000
C2037       C  0.37168279  0.94995423  0.83518464    -0.24300
C2038       C  0.37622628  0.05196735  0.83507878    -0.28900
C2039       C  0.36444180  0.06513512  0.85351792     0.06700
C2040       C  0.35492656  0.05280978  0.87367913    -0.27600
H2041       H  0.39509987  0.02228374  0.80123852     0.11400
H2042       H  0.39295537  0.97779532  0.80121349     0.12500
H2043       H  0.33829162  0.02488131  0.90994916     0.11600
H2044       H  0.33710883  0.98039776  0.91041021     0.10800
H2045       H  0.34296959  0.94161630  0.88944727     0.16200
H2046       H  0.37811913  0.93989647  0.81954696     0.12100
H2047       H  0.38355959  0.06147373  0.81947332     0.15000
H2048       H  0.34612029  0.06299938  0.88803106     0.14800
C2049       C  0.31643739  0.87688451  0.01344272    -0.18100
C2050       C  0.31673952  0.87797830  0.98817816    -0.20300
C2051       C  0.33746941  0.87083224  0.97530175     0.20400
C2052       C  0.35838486  0.86314211  0.98789407    -0.03200
C2053       C  0.35805540  0.86194161  0.01342296    -0.06300
C2054       C  0.33686575  0.86865230  0.02614487     0.20600
C2055       C  0.37858646  0.85334477  0.02615760     0.18800
C2056       C  0.39962770  0.84709463  0.01322317    -0.17800
C2057       C  0.39997326  0.84837134  0.98781930    -0.20000
C2058       C  0.37924879  0.85581518  0.97496303     0.20300
C2059       C  0.37855495  0.85503175  0.94946920    -0.33000
C2060       C  0.35718771  0.86138220  0.93695491     0.01000
C2061       C  0.33715364  0.87020779  0.95001657    -0.24300
C2062       C  0.33624217  0.86657655  0.05134680    -0.28900
C2063       C  0.35622973  0.85733540  0.06402319     0.06700
C2064       C  0.37743599  0.85077118  0.05150800    -0.27600
H2065       H  0.30008117  0.88208897  0.02303296     0.11400
H2066       H  0.30057172  0.88392599  0.97868102     0.12500
H2067       H  0.41564976  0.84077280  0.02271931     0.11600
H2068       H  0.41623235  0.84292582  0.97820586     0.10800
H2069       H  0.39420675  0.84852892  0.93949170     0.16200
H2070       H  0.32071105  0.87548096  0.94057321     0.12100
H2071       H  0.31988025  0.87148388  0.06113337     0.15000
H2072       H  0.39291729  0.84383221  0.06149185     0.14800
C2073       C  0.34000094  0.71439553  0.76854151    -0.18100
C2074       C  0.33988768  0.73209014  0.78681986    -0.20300
C2075       C  0.35435537  0.75299340  0.78475199     0.20400
C2076       C  0.36909732  0.75603835  0.76401316    -0.03200
C2077       C  0.36916527  0.73818486  0.74550458    -0.06300
C2078       C  0.35453551  0.71728318  0.74779592     0.20600
C2079       C  0.38372052  0.74136191  0.72464601     0.18800
C2080       C  0.39830865  0.76217471  0.72266076    -0.17800
C2081       C  0.39826752  0.77981362  0.74097818    -0.20000
C2082       C  0.38363480  0.77700010  0.76165440     0.20300
C2083       C  0.38318012  0.79486135  0.77989127    -0.33000
C2084       C  0.36849063  0.79207714  0.80065021     0.01000
C2085       C  0.35420774  0.77095378  0.80294718    -0.24300
C2086       C  0.35451551  0.69975810  0.72922770    -0.28900
C2087       C  0.36868311  0.70292574  0.70813193     0.06700
C2088       C  0.38329619  0.72380813  0.70607056    -0.27600
H2089       H  0.32861466  0.69847579  0.77058886     0.11400
H2090       H  0.32841982  0.72944089  0.80257175     0.12500
H2091       H  0.40967404  0.76489233  0.70684700     0.11600
H2092       H  0.40960738  0.79575615  0.73889749     0.10800
H2093       H  0.39427588  0.81099402  0.77787157     0.16200
H2094       H  0.34268850  0.76864056  0.81872660     0.12100
H2095       H  0.34310133  0.68381525  0.73103657     0.15000
H2096       H  0.39437557  0.72639355  0.69002182     0.14800
C2097       C  0.26106879  0.72346589  0.90088699    -0.18100
C2098       C  0.27894508  0.74153308  0.90187784    -0.20300
C2099       C  0.27553531  0.76379855  0.88989947     0.20400
C2100       C  0.25353792  0.76815682  0.87747906    -0.03200
C2101       C  0.23554142  0.74994895  0.87645359    -0.06300
C2102       C  0.23946636  0.72736296  0.88791733     0.20600
C2103       C  0.21388899  0.75416036  0.86341784     0.18800
C2104       C  0.21013386  0.77663713  0.85203472    -0.17800
C2105       C  0.22792332  0.79466001  0.85307683    -0.20000
C2106       C  0.24976581  0.79046014  0.86546331     0.20300
C2107       C  0.26818164  0.80791610  0.86530482    -0.33000
C2108       C  0.29062197  0.80336420  0.87662425     0.01000
C2109       C  0.29397084  0.78146446  0.88942433    -0.24300
C2110       C  0.22192891  0.70896217  0.88579667    -0.28900
C2111       C  0.20050798  0.71290824  0.87238418     0.06700
C2112       C  0.19654238  0.73569220  0.86154457    -0.27600
H2113       H  0.26431174  0.70629157  0.90994056     0.11400
H2114       H  0.29563059  0.73791478  0.91164008     0.12500
H2115       H  0.19357297  0.78015384  0.84201724     0.11600
H2116       H  0.22477643  0.81174185  0.84380785     0.10800
H2117       H  0.26528163  0.82476691  0.85552377     0.16200
H2118       H  0.31110190  0.77788370  0.89841224     0.12100
H2119       H  0.22510081  0.69150223  0.89433354     0.15000
H2120       H  0.18012584  0.73894800  0.85118384     0.14800
C2121       C  0.12332060  0.82056052  0.48603559    -0.18100
C2122       C  0.12286139  0.82137782  0.51137161    -0.20300
C2123       C  0.13285042  0.84124591  0.52379559     0.20400
C2124       C  0.14253968  0.86094669  0.51063971    -0.03200
C2125       C  0.14286771  0.86018760  0.48502785    -0.06300
C2126       C  0.13363308  0.83967615  0.47273063     0.20600
C2127       C  0.15311474  0.87957146  0.47178758     0.18800
C2128       C  0.16223228  0.89986468  0.48425418    -0.17800
C2129       C  0.16203215  0.90055325  0.50967331    -0.20000
C2130       C  0.15265845  0.88098030  0.52306349     0.20300
C2131       C  0.15407832  0.88060408  0.54857045    -0.33000
C2132       C  0.14559173  0.86035647  0.56169117     0.01000
C2133       C  0.13420132  0.84122191  0.54913445    -0.24300
C2134       C  0.13539605  0.83833047  0.44739653    -0.28900
C2135       C  0.14624967  0.85722719  0.43406766     0.06700
C2136       C  0.15463483  0.87802532  0.44638897    -0.27600
H2137       H  0.11600393  0.80476809  0.47686127     0.11400
H2138       H  0.11523697  0.80617183  0.52127184     0.12500
H2139       H  0.17000255  0.91499293  0.47435389     0.11600
H2140       H  0.16969424  0.91616957  0.51886289     0.10800
H2141       H  0.16261322  0.89557432  0.55807891     0.16200
H2142       H  0.12720273  0.82569892  0.55902418     0.12100
H2143       H  0.12869515  0.82231904  0.43810983     0.15000
H2144       H  0.16291699  0.89276015  0.43629615     0.14800
C2145       C  0.11432786  0.99082857  0.67281463    -0.18100
C2146       C  0.11475594  0.01621722  0.67296177    -0.20300
C2147       C  0.12979910  0.02896561  0.65684083     0.20400
C2148       C  0.14400243  0.01605562  0.63988507    -0.03200
C2149       C  0.14379206  0.99043016  0.63993106    -0.06300
C2150       C  0.12908094  0.97778846  0.65667697     0.20600
C2151       C  0.15891846  0.97749126  0.62381067     0.18800
C2152       C  0.17324574  0.99025043  0.60704708    -0.17800
C2153       C  0.17323417  0.01566302  0.60680609    -0.20000
C2154       C  0.15902680  0.02871639  0.62344022     0.20300
C2155       C  0.16018945  0.05415077  0.62447006    -0.33000
C2156       C  0.14695063  0.06704878  0.64210082     0.01000
C2157       C  0.13143799  0.05434447  0.65789315    -0.24300
C2158       C  0.13004250  0.95237094  0.65760559    -0.28900
C2159       C  0.14604157  0.93946376  0.64250999     0.06700
C2160       C  0.16005295  0.95208559  0.62530566    -0.27600
H2161       H  0.10288127  0.98138287  0.68572604     0.11400
H2162       H  0.10363042  0.02587891  0.68598070     0.12500
H2163       H  0.18480887  0.98057978  0.59442156     0.11600
H2164       H  0.18478002  0.02510885  0.59398517     0.10800
H2165       H  0.17217673  0.06381143  0.61220920     0.16200
H2166       H  0.12096208  0.06418533  0.67133028     0.12100
H2167       H  0.11919762  0.94271436  0.67089717     0.15000
H2168       H  0.17217399  0.94215328  0.61340520     0.14800
C2169       C  0.27209361  0.79176237  0.62394794    -0.18100
C2170       C  0.29015135  0.77395181  0.62461240    -0.20300
C2171       C  0.28394293  0.74924256  0.62473450     0.20400
C2172       C  0.25930448  0.74234372  0.62375527    -0.03200
C2173       C  0.24104098  0.76034818  0.62340262    -0.06300
C2174       C  0.24751077  0.78516335  0.62359113     0.20600
C2175       C  0.21635539  0.75353219  0.62336240     0.18800
C2176       C  0.21018375  0.72878241  0.62288909    -0.17800
C2177       C  0.22830193  0.71092586  0.62290667    -0.20000
C2178       C  0.25291880  0.71750091  0.62360028     0.20300
C2179       C  0.27125736  0.69974938  0.62460664    -0.33000
C2180       C  0.29582675  0.70659561  0.62634311     0.01000
C2181       C  0.30196678  0.73136486  0.62622042    -0.24300
C2182       C  0.22931724  0.80296335  0.62395841    -0.28900
C2183       C  0.20469275  0.79634581  0.62475557     0.06700
C2184       C  0.19833406  0.77157613  0.62425786    -0.27600
H2185       H  0.27735728  0.81072610  0.62408416     0.11400
H2186       H  0.30899904  0.77951827  0.62524349     0.12500
H2187       H  0.19132428  0.72322338  0.62272492     0.11600
H2188       H  0.22304750  0.69196033  0.62274072     0.10800
H2189       H  0.26639519  0.68066544  0.62479159     0.16200
H2190       H  0.32086021  0.73674942  0.62731772     0.12100
H2191       H  0.23435401  0.82199779  0.62448793     0.15000
H2192       H  0.17937007  0.76635947  0.62468997     0.14800
C2193       C  0.13924674  0.77380938  0.78788593    -0.18100
C2194       C  0.14014192  0.79225545  0.77047184    -0.20300
C2195       C  0.13633781  0.78693902  0.74586087     0.20400
C2196       C  0.13177080  0.76276779  0.73865102    -0.03200
C2197       C  0.13120498  0.74408661  0.75619445    -0.06300
C2198       C  0.13472638  0.74971913  0.78094827     0.20600
C2199       C  0.12721704  0.71980647  0.74897410     0.18800
C2200       C  0.12353701  0.71449030  0.72431778    -0.17800
C2201       C  0.12371617  0.73307908  0.70696249    -0.20000
C2202       C  0.12783939  0.75725791  0.71393969     0.20300
C2203       C  0.12824265  0.77600539  0.69666401    -0.33000
C2204       C  0.13295196  0.80012004  0.70373740     0.01000
C2205       C  0.13708228  0.80538880  0.72835973    -0.24300
C2206       C  0.13383764  0.73115776  0.79833196    -0.28900
C2207       C  0.13015751  0.70694012  0.79126796     0.06700
C2208       C  0.12707061  0.70131650  0.76654864    -0.27600
H2209       H  0.14216295  0.77837941  0.80679565     0.11400
H2210       H  0.14372500  0.81071598  0.77627223     0.12500
H2211       H  0.12043845  0.69595998  0.71846437     0.11600
H2212       H  0.12073916  0.72852590  0.68805884     0.10800
H2213       H  0.12530571  0.77176188  0.67767065     0.16200
H2214       H  0.14072713  0.82391488  0.73395354     0.12100
H2215       H  0.13668682  0.73544412  0.81733702     0.15000
H2216       H  0.12433529  0.68259938  0.76107066     0.14800
C2217       C  0.23199411  0.88754124  0.78574779    -0.18100
C2218       C  0.21461073  0.88803733  0.76716108    -0.20300
C2219       C  0.22050604  0.88004104  0.74366325     0.20400
C2220       C  0.24402543  0.87112938  0.73896831    -0.03200
C2221       C  0.26151507  0.87061055  0.75768245    -0.06300
C2222       C  0.25558154  0.87904299  0.78115867     0.20600
C2223       C  0.28501124  0.86177728  0.75279340     0.18800
C2224       C  0.29080897  0.85329991  0.72951800    -0.17800
C2225       C  0.27352313  0.85381941  0.71102146    -0.20000
C2226       C  0.25016382  0.86281353  0.71551605     0.20300
C2227       C  0.23289281  0.86360026  0.69690108    -0.33000
C2228       C  0.20945146  0.87260957  0.70126264     0.01000
C2229       C  0.20336364  0.88076563  0.72476729    -0.24300
C2230       C  0.27340423  0.87892283  0.79948084    -0.28900
C2231       C  0.29698863  0.87038939  0.79449828     0.06700
C2232       C  0.30245573  0.86167418  0.77115862    -0.27600
H2233       H  0.22703150  0.89394735  0.80366515     0.11400
H2234       H  0.19658443  0.89480167  0.77113487     0.12500
H2235       H  0.30878701  0.84638258  0.72557277     0.11600
H2236       H  0.27846568  0.84727406  0.69314580     0.10800
H2237       H  0.23773480  0.85708958  0.67897183     0.16200
H2238       H  0.18525225  0.88750422  0.72842042     0.12100
H2239       H  0.26893301  0.88539169  0.81751450     0.15000
H2240       H  0.32048416  0.85491324  0.76711894     0.14800
C2241       C  0.48929100  0.38649114  0.67738636    -0.18100
C2242       C  0.51469370  0.38686142  0.67747593    -0.20300
C2243       C  0.52787437  0.37310401  0.66055151     0.20400
C2244       C  0.51529125  0.35900320  0.64323550    -0.03200
C2245       C  0.48966755  0.35835555  0.64336495    -0.06300
C2246       C  0.47662148  0.37220283  0.66050191     0.20600
C2247       C  0.47714031  0.34358380  0.62656622     0.18800
C2248       C  0.49028802  0.33006095  0.60946507    -0.17800
C2249       C  0.51564102  0.33096881  0.60911840    -0.20000
C2250       C  0.52829653  0.34521852  0.62602433     0.20300
C2251       C  0.55372918  0.34544255  0.62634106    -0.33000
C2252       C  0.56646668  0.35878135  0.64401350     0.01000
C2253       C  0.55337748  0.37279868  0.66092237    -0.24300
C2254       C  0.45116982  0.37124438  0.66066407    -0.28900
C2255       C  0.43859353  0.35616475  0.64430534     0.06700
C2256       C  0.45171761  0.34238657  0.62731858    -0.27600
H2257       H  0.47955003  0.39719609  0.69069910     0.11400
H2258       H  0.52403714  0.39781521  0.69087914     0.12500
H2259       H  0.48095941  0.31869121  0.59640277     0.11600
H2260       H  0.52537450  0.32025986  0.59580458     0.10800
H2261       H  0.56360067  0.33446721  0.61333402     0.16200
H2262       H  0.56302030  0.38319887  0.67456840     0.12100
H2263       H  0.44116706  0.38169805  0.67400074     0.15000
H2264       H  0.44212079  0.33076856  0.61465283     0.14800
C2265       C  0.66908916  0.39687136  0.51076160    -0.18100
C2266       C  0.66961527  0.39688185  0.48532919    -0.20300
C2267       C  0.65804984  0.37838252  0.47212867     0.20400
C2268       C  0.64523057  0.36009501  0.48471788    -0.03200
C2269       C  0.64469700  0.36008733  0.51039529    -0.06300
C2270       C  0.65700650  0.37835104  0.52347867     0.20600
C2271       C  0.63248801  0.34136873  0.52294721     0.18800
C2272       C  0.62020025  0.32335677  0.50976025    -0.17800
C2273       C  0.62073709  0.32335636  0.48436699    -0.20000
C2274       C  0.63354900  0.34138274  0.47169820     0.20300
C2275       C  0.63543343  0.34059902  0.44630019    -0.33000
C2276       C  0.64885341  0.35827073  0.43358906     0.01000
C2277       C  0.65965083  0.37745045  0.44664721    -0.24300
C2278       C  0.65770726  0.37730906  0.54898662    -0.28900
C2279       C  0.64655027  0.35802587  0.56162687     0.06700
C2280       C  0.63344605  0.34049411  0.54841471    -0.27600
H2281       H  0.67854907  0.41111002  0.52049760     0.11400
H2282       H  0.67945376  0.41113364  0.47599155     0.12500
H2283       H  0.61058742  0.30895116  0.51909912     0.11600
H2284       H  0.61151368  0.30895828  0.47463839     0.10800
H2285       H  0.62682630  0.32588561  0.43645736     0.16200
H2286       H  0.66998954  0.39119766  0.43707935     0.12100
H2287       H  0.66773181  0.39102608  0.55892001     0.15000
H2288       H  0.62453480  0.32572803  0.55790707     0.14800
C2289       C  0.49049933  0.11186629  0.83188271    -0.18100
C2290       C  0.51585587  0.11181978  0.83249382    -0.20300
C2291       C  0.52848773  0.13006250  0.84501328     0.20400
C2292       C  0.51547821  0.14812713  0.85766379    -0.03200
C2293       C  0.48987486  0.14796748  0.85734529    -0.06300
C2294       C  0.47736536  0.13002437  0.84397264     0.20600
C2295       C  0.47682727  0.16612370  0.86985116     0.18800
C2296       C  0.48948048  0.18410097  0.88274827    -0.17800
C2297       C  0.51486831  0.18446384  0.88276108    -0.20000
C2298       C  0.52802664  0.16671016  0.87008258     0.20300
C2299       C  0.55346176  0.16755230  0.86908625    -0.33000
C2300       C  0.56651993  0.14992958  0.85599240     0.01000
C2301       C  0.55388024  0.13093112  0.84449290    -0.24300
C2302       C  0.45198887  0.13091387  0.84241512    -0.28900
C2303       C  0.43892383  0.14920473  0.85445069     0.06700
C2304       C  0.45139786  0.16638043  0.86864565    -0.27600
H2305       H  0.48116287  0.09787354  0.82168180     0.11400
H2306       H  0.52560083  0.09778245  0.82275455     0.12500
H2307       H  0.47973592  0.19816304  0.89245008     0.11600
H2308       H  0.52421199  0.19880265  0.89246352     0.10800
H2309       H  0.56305019  0.18216907  0.87813420     0.16200
H2310       H  0.56374835  0.11726350  0.83434047     0.12100
H2311       H  0.44238059  0.11751019  0.83166021     0.15000
H2312       H  0.44136567  0.18057764  0.87787531     0.14800
C2313       C  0.69361602  0.13274767  0.01101224    -0.18100
C2314       C  0.69354427  0.13318995  0.98563121    -0.20300
C2315       C  0.67217364  0.13859043  0.97286218     0.20400
C2316       C  0.65051717  0.14303038  0.98575123    -0.03200
C2317       C  0.65057777  0.14253086  0.01139335    -0.06300
C2318       C  0.67230914  0.13767283  0.02405281     0.20600
C2319       C  0.62906359  0.14753205  0.02433716     0.18800
C2320       C  0.60755975  0.15231503  0.01152495    -0.17800
C2321       C  0.60750967  0.15285712  0.98611400    -0.20000
C2322       C  0.62895622  0.14858101  0.97306048     0.20300
C2323       C  0.62935749  0.15032300  0.94760877    -0.33000
C2324       C  0.65105264  0.14653962  0.93466737     0.01000
C2325       C  0.67225592  0.14021278  0.94746933    -0.24300
C2326       C  0.67254092  0.13850593  0.04950251    -0.28900
C2327       C  0.65138648  0.14438440  0.06256928     0.06700
C2328       C  0.62958560  0.14835685  0.04982017    -0.27600
H2329       H  0.71043943  0.12892054  0.02045239     0.11400
H2330       H  0.71031313  0.12967908  0.97598874     0.12500
H2331       H  0.59084717  0.15606744  0.02117174     0.11600
H2332       H  0.59076154  0.15700247  0.97667649     0.10800
H2333       H  0.61288743  0.15504117  0.93793136     0.16200
H2334       H  0.68907695  0.13720498  0.93773046     0.12100
H2335       H  0.68942435  0.13530852  0.05908657     0.15000
H2336       H  0.61314034  0.15273441  0.05968100     0.14800
C2337       C  0.65507662  0.29338734  0.76974880    -0.18100
C2338       C  0.65512191  0.27559445  0.78786456    -0.20300
C2339       C  0.64387100  0.25308074  0.78387121     0.20400
C2340       C  0.63259187  0.24836901  0.76135603    -0.03200
C2341       C  0.63256096  0.26631961  0.74306256    -0.06300
C2342       C  0.64379435  0.28893804  0.74734333     0.20600
C2343       C  0.62133690  0.26160987  0.72050727     0.18800
C2344       C  0.61035380  0.23898100  0.71642493    -0.17800
C2345       C  0.61037083  0.22118993  0.73456645    -0.20000
C2346       C  0.62137619  0.22572709  0.75709578     0.20300
C2347       C  0.62141996  0.20800137  0.77539771    -0.33000
C2348       C  0.63255594  0.21258196  0.79793859     0.01000
C2349       C  0.64377331  0.23519189  0.80198055    -0.24300
C2350       C  0.64366078  0.30668345  0.72912061    -0.28900
C2351       C  0.63251079  0.30216400  0.70655715     0.06700
C2352       C  0.62137941  0.27955356  0.70240758    -0.27600
H2353       H  0.66386344  0.31064266  0.77326673     0.11400
H2354       H  0.66393650  0.27945670  0.80502231     0.12500
H2355       H  0.60172417  0.23504192  0.69919321     0.11600
H2356       H  0.60174777  0.20387071  0.73097778     0.10800
H2357       H  0.61289603  0.19058221  0.77201032     0.16200
H2358       H  0.65259698  0.23885598  0.81918876     0.12100
H2359       H  0.65246975  0.32397122  0.73248308     0.15000
H2360       H  0.61288476  0.27583798  0.68504964     0.14800
C2361       C  0.01682045  0.33051441  0.88652112    -0.18100
C2362       C  0.99146084  0.33017587  0.88629968    -0.20300
C2363       C  0.97853729  0.34413149  0.86934789     0.20400
C2364       C  0.99126754  0.35877961  0.85260160    -0.03200
C2365       C  0.01683908  0.35912276  0.85282593    -0.06300
C2366       C  0.02965197  0.34480235  0.86978339     0.20600
C2367       C  0.02956411  0.37338775  0.83575914     0.18800
C2368       C  0.01664608  0.38756984  0.81898941    -0.17800
C2369       C  0.99129095  0.38722746  0.81876263    -0.20000
C2370       C  0.97847472  0.37271069  0.83531515     0.20300
C2371       C  0.95311446  0.37151512  0.83456760    -0.33000
C2372       C  0.94033277  0.35666002  0.85093574     0.01000
C2373       C  0.95313753  0.34331316  0.86852607    -0.24300
C2374       C  0.05505953  0.34454385  0.86932010    -0.28900
C2375       C  0.06783007  0.35808925  0.85185358     0.06700
C2376       C  0.05496529  0.37276202  0.83537749    -0.27600
H2377       H  0.02640689  0.31939019  0.89962036     0.11400
H2378       H  0.98195492  0.31880803  0.89924098     0.12500
H2379       H  0.02615996  0.39868042  0.80583069     0.11600
H2380       H  0.98170701  0.39809012  0.80544293     0.10800
H2381       H  0.94332650  0.38194374  0.82103144     0.16200
H2382       H  0.94339142  0.33170694  0.88108993     0.12100
H2383       H  0.06485246  0.33311728  0.88201746     0.15000
H2384       H  0.06471117  0.38336847  0.82195711     0.14800
C2385       C  0.83375447  0.39082985  0.00897797    -0.18100
C2386       C  0.83420063  0.39150473  0.98359887    -0.20300
C2387       C  0.84716065  0.37395702  0.97045450     0.20400
C2388       C  0.86013808  0.35575867  0.98301631    -0.03200
C2389       C  0.85998693  0.35529136  0.00863674    -0.06300
C2390       C  0.84646777  0.37274135  0.02165234     0.20600
C2391       C  0.87303291  0.33714490  0.02119672     0.18800
C2392       C  0.88599438  0.31958224  0.00806129    -0.17800
C2393       C  0.88585049  0.31983655  0.98266823    -0.20000
C2394       C  0.87292777  0.33779416  0.96999564     0.20300
C2395       C  0.87220010  0.33783829  0.94455044    -0.33000
C2396       C  0.85901124  0.35572407  0.93188455     0.01000
C2397       C  0.84690998  0.37398129  0.94498707    -0.24300
C2398       C  0.84561261  0.37158369  0.04708046    -0.28900
C2399       C  0.85854707  0.35355078  0.05967951     0.06700
C2400       C  0.87251696  0.33662181  0.04664597    -0.27600
H2401       H  0.82335422  0.40439762  0.01869775     0.11400
H2402       H  0.82412836  0.40558118  0.97423348     0.12500
H2403       H  0.89602843  0.30547972  0.01742977     0.11600
H2404       H  0.89575894  0.30591056  0.97293486     0.10800
H2405       H  0.88166756  0.32373737  0.93460777     0.16200
H2406       H  0.83659290  0.38773864  0.93539542     0.12100
H2407       H  0.83487181  0.38468527  0.05709525     0.15000
H2408       H  0.88229000  0.32250329  0.05629378     0.14800
C2409       C  0.77791457  0.37448797  0.70690717    -0.18100
C2410       C  0.79524041  0.37538452  0.72545037    -0.20300
C2411       C  0.78803455  0.37518729  0.74988503     0.20400
C2412       C  0.76312901  0.37435198  0.75573230    -0.03200
C2413       C  0.74564460  0.37380297  0.73702884    -0.06300
C2414       C  0.75309159  0.37360530  0.71249456     0.20600
C2415       C  0.72073618  0.37319968  0.74289422     0.18800
C2416       C  0.71352600  0.37298328  0.76732235    -0.17800
C2417       C  0.73086647  0.37315359  0.78585474    -0.20000
C2418       C  0.75568834  0.37376533  0.78025597     0.20300
C2419       C  0.77319755  0.37349091  0.79872819    -0.33000
C2420       C  0.79802998  0.37424846  0.79300706     0.01000
C2421       C  0.80530154  0.37542155  0.76856513    -0.24300
C2422       C  0.73558545  0.37239288  0.69401970    -0.28900
C2423       C  0.71075747  0.37200530  0.69979438     0.06700
C2424       C  0.70347420  0.37260528  0.72423732    -0.27600
H2425       H  0.78393583  0.37443266  0.68818513     0.11400
H2426       H  0.81430143  0.37598691  0.72067790     0.12500
H2427       H  0.69446244  0.37246542  0.77209673     0.11600
H2428       H  0.72485987  0.37274002  0.80457805     0.10800
H2429       H  0.76751776  0.37266704  0.81755438     0.16200
H2430       H  0.82444845  0.37575935  0.76405731     0.12100
H2431       H  0.74122950  0.37203549  0.67516884     0.15000
H2432       H  0.68432709  0.37205142  0.72873818     0.14800
C2433       C  0.79090305  0.23305694  0.84079689    -0.18100
C2434       C  0.77301777  0.21508995  0.84133992    -0.20300
C2435       C  0.75119546  0.21904190  0.85382430     0.20400
C2436       C  0.74725023  0.24134815  0.86578760    -0.03200
C2437       C  0.76531539  0.25949629  0.86524307    -0.06300
C2438       C  0.78724989  0.25524586  0.85275280     0.20600
C2439       C  0.76144302  0.28183838  0.87719065     0.18800
C2440       C  0.73949268  0.28585471  0.88946726    -0.17800
C2441       C  0.72156571  0.26784706  0.89000315    -0.20000
C2442       C  0.72528068  0.24552283  0.87826168     0.20300
C2443       C  0.70740995  0.22734227  0.87867401    -0.33000
C2444       C  0.71124705  0.20503797  0.86676893     0.01000
C2445       C  0.73323569  0.20108022  0.85443119    -0.24300
C2446       C  0.80520232  0.27321067  0.85244930    -0.28900
C2447       C  0.80161907  0.29547040  0.86445905     0.06700
C2448       C  0.77960429  0.29971283  0.87668542    -0.27600
H2449       H  0.80763072  0.22957333  0.83106670     0.11400
H2450       H  0.77626473  0.19807703  0.83200242     0.12500
H2451       H  0.73620339  0.30291438  0.89869891     0.11600
H2452       H  0.70478975  0.27137897  0.89962204     0.10800
H2453       H  0.69048307  0.23062717  0.88813190     0.16200
H2454       H  0.73634861  0.18404412  0.84506738     0.12100
H2455       H  0.82199135  0.26982549  0.84276722     0.15000
H2456       H  0.77661944  0.31686404  0.88586995     0.14800
C2457       C  0.84760187  0.10718547  0.48484204    -0.18100
C2458       C  0.84676425  0.10703577  0.51020073    -0.20300
C2459       C  0.85480592  0.12722965  0.52347294     0.20400
C2460       C  0.86443839  0.14751998  0.51107740    -0.03200
C2461       C  0.86520421  0.14770812  0.48547423    -0.06300
C2462       C  0.85643398  0.12755353  0.47233713     0.20600
C2463       C  0.87402548  0.16832893  0.47303964     0.18800
C2464       C  0.88276879  0.18824138  0.48633566    -0.17800
C2465       C  0.88210886  0.18801238  0.51172408    -0.20000
C2466       C  0.87261951  0.16790769  0.52421512     0.20300
C2467       C  0.87047667  0.16814754  0.54955371    -0.33000
C2468       C  0.85998043  0.14839834  0.56200034     0.01000
C2469       C  0.85270401  0.12776617  0.54884922    -0.24300
C2470       C  0.85586604  0.12839166  0.44693936    -0.28900
C2471       C  0.86359148  0.14925912  0.43439500     0.06700
C2472       C  0.87321019  0.16896047  0.44757438    -0.27600
H2473       H  0.84088012  0.09153874  0.47498762     0.11400
H2474       H  0.83942105  0.09127783  0.51942309     0.12500
H2475       H  0.88971354  0.20416987  0.47709593     0.11600
H2476       H  0.88856944  0.20377009  0.52157995     0.10800
H2477       H  0.87637082  0.18407427  0.55950861     0.16200
H2478       H  0.84475244  0.11240981  0.55826325     0.12100
H2479       H  0.84856005  0.11306129  0.43698538     0.15000
H2480       H  0.87936308  0.18508196  0.43808948     0.14800
C2481       C  0.98941977  0.17203570  0.60833244    -0.18100
C2482       C  0.01480927  0.17245823  0.60867588    -0.20300
C2483       C  0.02771134  0.15990647  0.62672337     0.20400
C2484       C  0.01489180  0.14666476  0.64453120    -0.03200
C2485       C  0.98924187  0.14648333  0.64435452    -0.06300
C2486       C  0.97646137  0.15921166  0.62614212     0.20600
C2487       C  0.97641555  0.13381838  0.66255648     0.18800
C2488       C  0.98932520  0.12120989  0.68057397    -0.17800
C2489       C  0.01472420  0.12114469  0.68058213    -0.20000
C2490       C  0.02767771  0.13384122  0.66268067     0.20300
C2491       C  0.05316117  0.13424195  0.66282410    -0.33000
C2492       C  0.06604019  0.14784177  0.64545566     0.01000
C2493       C  0.05317341  0.16060642  0.62744992    -0.24300
C2494       C  0.95097129  0.15924928  0.62627848    -0.28900
C2495       C  0.93799971  0.14707791  0.64464108     0.06700
C2496       C  0.95093211  0.13426333  0.66262841    -0.27600
H2497       H  0.97990371  0.18194274  0.59424413     0.11400
H2498       H  0.02436263  0.18268073  0.59484725     0.12500
H2499       H  0.97976804  0.11142548  0.69471297     0.11600
H2500       H  0.02424298  0.11130342  0.69471470     0.10800
H2501       H  0.06296412  0.12462153  0.67693248     0.16200
H2502       H  0.06301048  0.17110052  0.61400759     0.12100
H2503       H  0.94125317  0.16934435  0.61245102     0.15000
H2504       H  0.94117104  0.12482941  0.67687894     0.14800
C2505       C  0.71242867  0.22714464  0.63006607    -0.18100
C2506       C  0.73132979  0.21016639  0.62950670    -0.20300
C2507       C  0.75561772  0.21788061  0.62961206     0.20400
C2508       C  0.76094072  0.24292026  0.63062720    -0.03200
C2509       C  0.74189049  0.26004350  0.63082530    -0.06300
C2510       C  0.71750263  0.25212756  0.63049265     0.20600
C2511       C  0.74727993  0.28508534  0.63115850     0.18800
C2512       C  0.77152170  0.29280292  0.63203348    -0.17800
C2513       C  0.79037959  0.27583312  0.63219557    -0.20000
C2514       C  0.78530263  0.25088087  0.63128871     0.20300
C2515       C  0.80415739  0.23377069  0.63094512    -0.33000
C2516       C  0.79899264  0.20883415  0.62937657     0.01000
C2517       C  0.77468016  0.20102294  0.62871448    -0.24300
C2518       C  0.69868970  0.26935252  0.63034233    -0.28900
C2519       C  0.70406264  0.29431468  0.62984033     0.06700
C2520       C  0.72836149  0.30200722  0.63043353    -0.27600
H2521       H  0.69384069  0.22073836  0.62989062     0.11400
H2522       H  0.72694907  0.19098529  0.62893062     0.12500
H2523       H  0.77590472  0.31198644  0.63248547     0.11600
H2524       H  0.80896028  0.28223863  0.63279666     0.10800
H2525       H  0.82285975  0.23985518  0.63156268     0.16200
H2526       H  0.77060366  0.18176610  0.62795302     0.12100
H2527       H  0.67994493  0.26338127  0.63009141     0.15000
H2528       H  0.73254689  0.32125827  0.63061142     0.14800
C2529       C  0.76764394  0.11788050  0.78214571    -0.18100
C2530       C  0.78562990  0.11793910  0.76425906    -0.20300
C2531       C  0.77996066  0.12437278  0.74026650     0.20400
C2532       C  0.75589228  0.13068289  0.73418680    -0.03200
C2533       C  0.73772632  0.13061933  0.75224711    -0.06300
C2534       C  0.74369220  0.12428061  0.77634259     0.20600
C2535       C  0.71371004  0.13723427  0.74626611     0.18800
C2536       C  0.70800437  0.14347279  0.72222110    -0.17800
C2537       C  0.72601806  0.14355762  0.70432252    -0.20000
C2538       C  0.75003172  0.13734827  0.71015074     0.20300
C2539       C  0.76831555  0.13789139  0.69242955    -0.33000
C2540       C  0.79239070  0.13166975  0.69835790     0.01000
C2541       C  0.79799569  0.12481891  0.72232499    -0.24300
C2542       C  0.72572714  0.12486833  0.79431914    -0.28900
C2543       C  0.70187687  0.13200690  0.78865743     0.06700
C2544       C  0.69594658  0.13791529  0.76450855    -0.27600
H2545       H  0.77251225  0.11300104  0.80057370     0.11400
H2546       H  0.80402474  0.11307551  0.76922744     0.12500
H2547       H  0.68964853  0.14852554  0.71730088     0.11600
H2548       H  0.72119703  0.14865484  0.68593895     0.10800
H2549       H  0.76379196  0.14323363  0.67402831     0.16200
H2550       H  0.81649843  0.12017593  0.72713863     0.12100
H2551       H  0.73050047  0.12034972  0.81287504     0.15000
H2552       H  0.67758598  0.14332216  0.75995242     0.14800
C2553       C  0.86852473  0.23175234  0.78883313    -0.18100
C2554       C  0.86831767  0.21272689  0.77202049    -0.20300
C2555       C  0.87058304  0.21756025  0.74711241     0.20400
C2556       C  0.87311444  0.24180840  0.73907108    -0.03200
C2557       C  0.87292958  0.26099528  0.75596252    -0.06300
C2558       C  0.87080977  0.25590101  0.78096555     0.20600
C2559       C  0.87476969  0.28527310  0.74780956     0.18800
C2560       C  0.87715334  0.29011256  0.72293859    -0.17800
C2561       C  0.87774210  0.27106614  0.70622572    -0.20000
C2562       C  0.87563781  0.24693008  0.71412176     0.20300
C2563       C  0.87563548  0.22786588  0.69742203    -0.33000
C2564       C  0.87253251  0.20374848  0.70519067     0.01000
C2565       C  0.87008588  0.19865252  0.73006145    -0.24300
C2566       C  0.87102081  0.27506759  0.79763667    -0.28900
C2567       C  0.87278319  0.29923499  0.78957965     0.06700
C2568       C  0.87430086  0.30427408  0.76467878    -0.27600
H2569       H  0.86678751  0.22759309  0.80798359     0.11400
H2570       H  0.86637818  0.19423802  0.77849523     0.12500
H2571       H  0.87864076  0.30862848  0.71641960     0.11600
H2572       H  0.87963248  0.27522413  0.68708930     0.10800
H2573       H  0.87732552  0.23190477  0.67822505     0.16200
H2574       H  0.86779925  0.18004315  0.73610014     0.12100
H2575       H  0.86944294  0.27123521  0.81688751     0.15000
H2576       H  0.87562547  0.32293991  0.75851202     0.14800
C2577       C  0.48781407  0.66927499  0.60334345    -0.18100
C2578       C  0.51327598  0.66889104  0.60277252    -0.20300
C2579       C  0.52655843  0.65801876  0.62165915     0.20400
C2580       C  0.51392776  0.64724828  0.64119798    -0.03200
C2581       C  0.48823910  0.64763748  0.64177937    -0.06300
C2582       C  0.47508574  0.65880429  0.62282766     0.20600
C2583       C  0.47576332  0.63710404  0.66151760     0.18800
C2584       C  0.48894262  0.62610267  0.68033271    -0.17800
C2585       C  0.51429437  0.62575247  0.67977866    -0.20000
C2586       C  0.52694524  0.63635675  0.66036936     0.20300
C2587       C  0.55239094  0.63655960  0.66007526    -0.33000
C2588       C  0.56531832  0.64760034  0.64093199     0.01000
C2589       C  0.55217847  0.65807228  0.62159498    -0.24300
C2590       C  0.44951978  0.65958865  0.62391889    -0.28900
C2591       C  0.43696062  0.64945456  0.64384149     0.06700
C2592       C  0.45035029  0.63802661  0.66237034    -0.27600
H2593       H  0.47807556  0.67793482  0.58860443     0.11400
H2594       H  0.52259171  0.67726968  0.58761016     0.12500
H2595       H  0.47963609  0.61792551  0.69561347     0.11600
H2596       H  0.52402833  0.61731760  0.69465327     0.10800
H2597       H  0.56214768  0.62842115  0.67511140     0.16200
H2598       H  0.56183963  0.66675982  0.60681998     0.12100
H2599       H  0.43946892  0.66845562  0.60950470     0.15000
H2600       H  0.44100063  0.63006235  0.67774670     0.14800
C2601       C  0.60844674  0.48898615  0.65276136    -0.18100
C2602       C  0.60803162  0.51434227  0.65235459    -0.20300
C2603       C  0.62894104  0.52745856  0.64618294     0.20400
C2604       C  0.65045332  0.51491768  0.64011179    -0.03200
C2605       C  0.65088518  0.48935244  0.64055852    -0.06300
C2606       C  0.62977557  0.47637144  0.64699752     0.20600
C2607       C  0.67247926  0.47681366  0.63486660     0.18800
C2608       C  0.69341106  0.48991640  0.62863920    -0.17800
C2609       C  0.69297075  0.51529403  0.62815581    -0.20000
C2610       C  0.67161204  0.52791046  0.63395309     0.20300
C2611       C  0.67117536  0.55330091  0.63420530    -0.33000
C2612       C  0.64995833  0.56594186  0.64085429     0.01000
C2613       C  0.62882427  0.55288943  0.64648012    -0.24300
C2614       C  0.63039355  0.45100383  0.64784391    -0.28900
C2615       C  0.65184992  0.43839200  0.64239699     0.06700
C2616       C  0.67280931  0.45140976  0.63577525    -0.27600
H2617       H  0.59211195  0.47923529  0.65774628     0.11400
H2618       H  0.59139585  0.52370494  0.65706190     0.12500
H2619       H  0.71013695  0.48054684  0.62426538     0.11600
H2620       H  0.70938158  0.52505879  0.62344410     0.10800
H2621       H  0.68762431  0.56318701  0.62985722     0.16200
H2622       H  0.61243422  0.56248784  0.65160233     0.12100
H2623       H  0.61420009  0.44110022  0.65303206     0.15000
H2624       H  0.68949598  0.44182301  0.63168635     0.14800
C2625       C  0.64392564  0.69507057  0.48394345    -0.18100
C2626       C  0.64468291  0.69468250  0.50930608    -0.20300
C2627       C  0.64718896  0.67261858  0.52183285     0.20400
C2628       C  0.64892062  0.65069902  0.50873668    -0.03200
C2629       C  0.64812088  0.65109070  0.48307050    -0.06300
C2630       C  0.64564107  0.67339688  0.47065849     0.20600
C2631       C  0.65003386  0.62922765  0.46985599     0.18800
C2632       C  0.65243451  0.60716615  0.48246166    -0.17800
C2633       C  0.65323105  0.60677923  0.50790358    -0.20000
C2634       C  0.65164314  0.62845114  0.52125515     0.20300
C2635       C  0.65286259  0.62833547  0.54683244    -0.33000
C2636       C  0.65109550  0.65020452  0.55998736     0.01000
C2637       C  0.64814823  0.67219600  0.54723065    -0.24300
C2638       C  0.64521400  0.67371406  0.44518712    -0.28900
C2639       C  0.64751785  0.65205875  0.43177697     0.06700
C2640       C  0.64979874  0.62984953  0.44431003    -0.27600
H2641       H  0.64208099  0.71235751  0.47470735     0.11400
H2642       H  0.64338618  0.71167810  0.51913575     0.12500
H2643       H  0.65385306  0.59018670  0.47262678     0.11600
H2644       H  0.65522544  0.58951233  0.51713792     0.10800
H2645       H  0.65507204  0.61130036  0.55646086     0.16200
H2646       H  0.64695770  0.68919640  0.55708634     0.12100
H2647       H  0.64362367  0.69095588  0.43579827     0.15000
H2648       H  0.65156919  0.61306071  0.43419249     0.14800
C2649       C  0.82439169  0.51400437  0.87918448    -0.18100
C2650       C  0.82465007  0.48867429  0.87847110    -0.20300
C2651       C  0.84303188  0.47635410  0.86592635     0.20400
C2652       C  0.86163850  0.48959024  0.85435141    -0.03200
C2653       C  0.86136087  0.51521619  0.85504897    -0.06300
C2654       C  0.84247933  0.52740075  0.86731316     0.20600
C2655       C  0.87955575  0.52862045  0.84297746     0.18800
C2656       C  0.89817184  0.51619422  0.83077240    -0.17800
C2657       C  0.89846086  0.49073851  0.83009788    -0.20000
C2658       C  0.88014686  0.47725647  0.84163462     0.20300
C2659       C  0.87964689  0.45173526  0.84026040    -0.33000
C2660       C  0.86071878  0.43852210  0.85128411     0.01000
C2661       C  0.84274691  0.45103013  0.86436154    -0.24300
C2662       C  0.84148735  0.55276876  0.86686434    -0.28900
C2663       C  0.85891316  0.56632000  0.85407101     0.06700
C2664       C  0.87831211  0.55414682  0.84268566    -0.27600
H2665       H  0.80980100  0.52313229  0.88869282     0.11400
H2666       H  0.81027156  0.47871547  0.88746979     0.12500
H2667       H  0.91231432  0.52616929  0.82142832     0.11600
H2668       H  0.91283561  0.48160446  0.82027752     0.10800
H2669       H  0.89355113  0.44225736  0.83007613     0.16200
H2670       H  0.82816052  0.44106134  0.87303364     0.12100
H2671       H  0.82661340  0.56194552  0.87590052     0.15000
H2672       H  0.89186720  0.56443689  0.83280825     0.14800
C2673       C  0.01240039  0.63290606  0.81035720    -0.18100
C2674       C  0.98705266  0.63318407  0.81019868    -0.20300
C2675       C  0.97411325  0.64008174  0.83101227     0.20400
C2676       C  0.98680617  0.64626048  0.85237770    -0.03200
C2677       C  0.01245651  0.64602278  0.85252469    -0.06300
C2678       C  0.02524238  0.63954763  0.83132048     0.20600
C2679       C  0.02527465  0.65280715  0.87365607     0.18800
C2680       C  0.01226001  0.65907870  0.89465939    -0.17800
C2681       C  0.98682016  0.65924529  0.89453315    -0.20000
C2682       C  0.97390522  0.65320399  0.87338917     0.20300
C2683       C  0.94839512  0.65450583  0.87268996    -0.33000
C2684       C  0.93564307  0.64904356  0.85118702     0.01000
C2685       C  0.94872698  0.64141332  0.83059881    -0.24300
C2686       C  0.05063548  0.64039435  0.83118204    -0.28900
C2687       C  0.06364922  0.64794906  0.85184082     0.06700
C2688       C  0.05080877  0.65374894  0.87319569    -0.27600
H2689       H  0.02197327  0.62783764  0.79394507     0.11400
H2690       H  0.97756394  0.62831864  0.79366920     0.12500
H2691       H  0.02175889  0.66420045  0.91110093     0.11600
H2692       H  0.97724463  0.66448396  0.91088695     0.10800
H2693       H  0.93853300  0.66021339  0.88872224     0.16200
H2694       H  0.93918863  0.63698737  0.81396390     0.12100
H2695       H  0.06023692  0.63579891  0.81463769     0.15000
H2696       H  0.06061558  0.65947742  0.88926245     0.14800
C2697       C  0.83613918  0.60617703  0.01071974    -0.18100
C2698       C  0.83658116  0.60613793  0.98531364    -0.20300
C2699       C  0.84751767  0.62530674  0.97254946     0.20400
C2700       C  0.85868964  0.64437260  0.98552277    -0.03200
C2701       C  0.85824921  0.64440899  0.01114612    -0.06300
C2702       C  0.84666620  0.62536375  0.02379448     0.20600
C2703       C  0.86885295  0.66382751  0.02406197     0.18800
C2704       C  0.88035121  0.68266695  0.01132980    -0.17800
C2705       C  0.88078366  0.68263313  0.98596084    -0.20000
C2706       C  0.86969245  0.66377803  0.97291171     0.20300
C2707       C  0.86869024  0.66445042  0.94750609    -0.33000
C2708       C  0.85665411  0.64608615  0.93445189     0.01000
C2709       C  0.84673672  0.62618538  0.94709108    -0.24300
C2710       C  0.84535301  0.62611966  0.04924149    -0.28900
C2711       C  0.85531054  0.64578432  0.06221729     0.06700
C2712       C  0.86732901  0.66437358  0.04944927    -0.27600
H2713       H  0.82724033  0.59136933  0.02013949     0.11400
H2714       H  0.82797971  0.59132191  0.97564034     0.12500
H2715       H  0.88868084  0.69764470  0.02099219     0.11600
H2716       H  0.88940206  0.69760543  0.97653630     0.10800
H2717       H  0.87664092  0.67971712  0.93794396     0.16200
H2718       H  0.83754270  0.61186126  0.93720669     0.12100
H2719       H  0.83605659  0.61168888  0.05887776     0.15000
H2720       H  0.87518078  0.67953854  0.05923939     0.14800
C2721       C  0.70854799  0.62751112  0.76910976    -0.18100
C2722       C  0.72549173  0.62739944  0.78807058    -0.20300
C2723       C  0.75045858  0.62672324  0.78306226     0.20400
C2724       C  0.75837303  0.62564261  0.75869653    -0.03200
C2725       C  0.74131369  0.62621620  0.73957700    -0.06300
C2726       C  0.71628709  0.62723213  0.74481615     0.20600
C2727       C  0.74935207  0.62630236  0.71522572     0.18800
C2728       C  0.77425781  0.62489155  0.71021379    -0.17800
C2729       C  0.79112152  0.62388734  0.72913565    -0.20000
C2730       C  0.78337632  0.62458303  0.75337746     0.20300
C2731       C  0.80027442  0.62493187  0.77233153    -0.33000
C2732       C  0.79264794  0.62707517  0.79657819     0.01000
C2733       C  0.76767699  0.62768212  0.80188267    -0.24300
C2734       C  0.69950552  0.62841818  0.72566610    -0.28900
C2735       C  0.70745510  0.62930816  0.70138076     0.06700
C2736       C  0.73239544  0.62815881  0.69631469    -0.27600
H2737       H  0.68938745  0.62824666  0.77344524     0.11400
H2738       H  0.71907127  0.62808741  0.80664612     0.12500
H2739       H  0.78071586  0.62477919  0.69164008     0.11600
H2740       H  0.81027747  0.62303865  0.72479612     0.10800
H2741       H  0.81948511  0.62455757  0.76810223     0.16200
H2742       H  0.76169058  0.62912957  0.82057148     0.12100
H2743       H  0.68027016  0.62941187  0.72967227     0.15000
H2744       H  0.73857890  0.62860775  0.67763675     0.14800
C2745       C  0.48546637  0.89434044  0.82814550    -0.18100
C2746       C  0.51082715  0.89421144  0.82657851    -0.20300
C2747       C  0.52447251  0.87673624  0.83918454     0.20400
C2748       C  0.51242036  0.85966151  0.85405767    -0.03200
C2749       C  0.48682098  0.85955597  0.85534424    -0.06300
C2750       C  0.47329554  0.87682066  0.84211760     0.20600
C2751       C  0.47477418  0.84171908  0.86929268     0.18800
C2752       C  0.48841021  0.82481544  0.88260534    -0.17800
C2753       C  0.51375774  0.82514102  0.88161678    -0.20000
C2754       C  0.52589785  0.84224895  0.86714537     0.20300
C2755       C  0.55124388  0.84183759  0.86510778    -0.33000
C2756       C  0.56337668  0.85814468  0.84963695     0.01000
C2757       C  0.54987392  0.87568885  0.83683557    -0.24300
C2758       C  0.44786251  0.87572203  0.84240587    -0.28900
C2759       C  0.43574597  0.85717791  0.85522442     0.06700
C2760       C  0.44934073  0.84059562  0.86907814    -0.27600
H2761       H  0.47534373  0.90780306  0.81796687     0.11400
H2762       H  0.51975420  0.90759296  0.81524842     0.12500
H2763       H  0.47946166  0.81109602  0.89350790     0.11600
H2764       H  0.52386770  0.81168809  0.89181755     0.10800
H2765       H  0.56149436  0.82818751  0.87492538     0.16200
H2766       H  0.55912854  0.88843708  0.82502781     0.12100
H2767       H  0.43755469  0.88868801  0.83176070     0.15000
H2768       H  0.44015719  0.82646987  0.87926438     0.14800
C2769       C  0.67384299  0.01525462  0.88415656    -0.18100
C2770       C  0.67386067  0.98988676  0.88292858    -0.20300
C2771       C  0.65881250  0.97775747  0.86633746     0.20400
C2772       C  0.64327147  0.99126924  0.85109677    -0.03200
C2773       C  0.64345189  0.01688570  0.85214737    -0.06300
C2774       C  0.65891439  0.02891633  0.86867799     0.20600
C2775       C  0.62859872  0.03043908  0.83627346     0.18800
C2776       C  0.61321373  0.01829408  0.81999279    -0.17800
C2777       C  0.61283285  0.99289364  0.81914136    -0.20000
C2778       C  0.62794404  0.97921845  0.83445220     0.20300
C2779       C  0.62840033  0.95375211  0.83305794    -0.33000
C2780       C  0.64440697  0.94024519  0.84768879     0.01000
C2781       C  0.65938766  0.95238437  0.86441321    -0.24300
C2782       C  0.65972071  0.05437821  0.86894632    -0.28900
C2783       C  0.64570621  0.06797318  0.85249409     0.06700
C2784       C  0.62987495  0.05587356  0.83650600    -0.27600
H2785       H  0.68581153  0.02420391  0.89694447     0.11400
H2786       H  0.68583112  0.97975019  0.89480879     0.12500
H2787       H  0.60165780  0.02844920  0.80772318     0.11600
H2788       H  0.60096835  0.98394753  0.80625478     0.10800
H2789       H  0.61693169  0.94450701  0.82000557     0.16200
H2790       H  0.67165555  0.94205444  0.87583882     0.12100
H2791       H  0.67203098  0.06356380  0.88125174     0.15000
H2792       H  0.61887624  0.06625092  0.82389344     0.14800
C2793       C  0.62397222  0.82161921  0.00592495    -0.18100
C2794       C  0.62350787  0.82166948  0.98057785    -0.20300
C2795       C  0.63456003  0.84054557  0.96752865     0.20400
C2796       C  0.64595796  0.85973427  0.98010652    -0.03200
C2797       C  0.64647402  0.85965485  0.00573671    -0.06300
C2798       C  0.63554660  0.84040991  0.01863209     0.20600
C2799       C  0.65825105  0.87856605  0.01841909     0.18800
C2800       C  0.66914425  0.89753737  0.00530163    -0.17800
C2801       C  0.66860707  0.89763078  0.97986986    -0.20000
C2802       C  0.65717348  0.87875562  0.96709291     0.20300
C2803       C  0.65714414  0.87829445  0.94157399    -0.33000
C2804       C  0.64625438  0.85890261  0.92893564     0.01000
C2805       C  0.63476316  0.84028090  0.94212012    -0.24300
C2806       C  0.63678445  0.83996091  0.04399818    -0.28900
C2807       C  0.64896365  0.85837274  0.05685211     0.06700
C2808       C  0.65933755  0.87787407  0.04392958    -0.27600
H2809       H  0.61549505  0.80672251  0.01559725     0.11400
H2810       H  0.61467977  0.80681603  0.97116881     0.12500
H2811       H  0.67827774  0.91220199  0.01470877     0.11600
H2812       H  0.67733336  0.91237113  0.97018496     0.10800
H2813       H  0.66615333  0.89267800  0.93159926     0.16200
H2814       H  0.62628089  0.82527680  0.93260877     0.12100
H2815       H  0.62859606  0.82492394  0.05372392     0.15000
H2816       H  0.66878336  0.89214808  0.05364189     0.14800
C2817       C  0.64960985  0.71699472  0.76644347    -0.18100
C2818       C  0.64925565  0.73608429  0.78314813    -0.20300
C2819       C  0.63969239  0.75877453  0.77659653     0.20400
C2820       C  0.63061725  0.76243224  0.75292486    -0.03200
C2821       C  0.63066283  0.74306444  0.73618659    -0.06300
C2822       C  0.64020326  0.72023964  0.74300125     0.20600
C2823       C  0.62118197  0.74654736  0.71266837     0.18800
C2824       C  0.61200914  0.76938699  0.70598193    -0.17800
C2825       C  0.61225122  0.78869558  0.72248385    -0.20000
C2826       C  0.62147620  0.78541016  0.74600498     0.20300
C2827       C  0.62167299  0.80460594  0.76278581    -0.33000
C2828       C  0.63012455  0.80074581  0.78652062     0.01000
C2829       C  0.63903788  0.77786535  0.79332427    -0.24300
C2830       C  0.64024572  0.70108116  0.72625256    -0.28900
C2831       C  0.63071967  0.70437981  0.70280928     0.06700
C2832       C  0.62116463  0.72717669  0.69620131    -0.27600
H2833       H  0.65710732  0.69963587  0.77191275     0.11400
H2834       H  0.65646120  0.73310005  0.80121288     0.12500
H2835       H  0.60471031  0.77233895  0.68795100     0.11600
H2836       H  0.60512464  0.80616714  0.71688579     0.10800
H2837       H  0.61484371  0.82234277  0.75761451     0.16200
H2838       H  0.64589380  0.77509983  0.81158331     0.12100
H2839       H  0.64781680  0.68365532  0.73144382     0.15000
H2840       H  0.61397416  0.72999332  0.67809630     0.14800
C2841       C  0.72724748  0.71139674  0.86919248    -0.18100
C2842       C  0.70893095  0.72900280  0.86773172    -0.20300
C2843       C  0.71475105  0.75384521  0.86766704     0.20400
C2844       C  0.73928918  0.76098121  0.86948716    -0.03200
C2845       C  0.75780818  0.74320215  0.87056967    -0.06300
C2846       C  0.75176080  0.71828158  0.87036823     0.20600
C2847       C  0.78237886  0.75038833  0.87137680     0.18800
C2848       C  0.78818805  0.77520919  0.87189257    -0.17800
C2849       C  0.76985676  0.79278861  0.87125169    -0.20000
C2850       C  0.74538468  0.78588057  0.86978731     0.20300
C2851       C  0.72697550  0.80344826  0.86817613    -0.33000
C2852       C  0.70251670  0.79654650  0.86561247     0.01000
C2853       C  0.69654584  0.77165611  0.86547892    -0.24300
C2854       C  0.77033316  0.70072942  0.87080344    -0.28900
C2855       C  0.79490531  0.70777496  0.87075558     0.06700
C2856       C  0.80072196  0.73267146  0.87121091    -0.27600
H2857       H  0.72224732  0.69236247  0.86902941     0.11400
H2858       H  0.69019641  0.72317034  0.86647708     0.12500
H2859       H  0.80695017  0.78104487  0.87262092     0.11600
H2860       H  0.77485375  0.81182312  0.87152462     0.10800
H2861       H  0.73177424  0.82254933  0.86820698     0.16200
H2862       H  0.67773878  0.76615919  0.86371568     0.12100
H2863       H  0.76568300  0.68160101  0.87025927     0.15000
H2864       H  0.81958405  0.73826912  0.87130324     0.14800
C2865       C  0.89392561  0.83248449  0.48401233    -0.18100
C2866       C  0.89382067  0.83227348  0.50940468    -0.20300
C2867       C  0.87658393  0.84584175  0.52233395     0.20400
C2868       C  0.85968004  0.86028136  0.50956447    -0.03200
C2869       C  0.85958850  0.86024934  0.48394334    -0.06300
C2870       C  0.87666965  0.84611006  0.47112806     0.20600
C2871       C  0.84197778  0.87380957  0.47118907     0.18800
C2872       C  0.82518266  0.88793617  0.48410766    -0.17800
C2873       C  0.82546887  0.88821650  0.50949353    -0.20000
C2874       C  0.84242753  0.87421495  0.52237348     0.20300
C2875       C  0.84197387  0.87333887  0.54780774    -0.33000
C2876       C  0.85807238  0.85816893  0.56059098     0.01000
C2877       C  0.87553823  0.84472485  0.54775897    -0.24300
C2878       C  0.87571946  0.84523549  0.44569903    -0.28900
C2879       C  0.85756004  0.85787060  0.43291918     0.06700
C2880       C  0.84103219  0.87246843  0.44579002    -0.27600
H2881       H  0.90720430  0.82158609  0.47444397     0.11400
H2882       H  0.90701642  0.82122006  0.51893220     0.12500
H2883       H  0.81160742  0.89852193  0.47457951     0.11600
H2884       H  0.81211751  0.89902471  0.51906189     0.10800
H2885       H  0.82839120  0.88366469  0.55760869     0.16200
H2886       H  0.88811676  0.83317866  0.55756451     0.12100
H2887       H  0.88850994  0.83391059  0.43593864     0.15000
H2888       H  0.82710841  0.88242753  0.43606903     0.14800
C2889       C  0.01649393  0.84730381  0.59993013    -0.18100
C2890       C  0.99108391  0.84660613  0.59986476    -0.20300
C2891       C  0.97788690  0.85402331  0.62036879     0.20400
C2892       C  0.99045533  0.86310772  0.64078030    -0.03200
C2893       C  0.01608060  0.86375730  0.64086982    -0.06300
C2894       C  0.02916616  0.85536016  0.62052455     0.20600
C2895       C  0.02858103  0.87198032  0.66166383     0.18800
C2896       C  0.01543268  0.88041701  0.68176249    -0.17800
C2897       C  0.99008278  0.87982981  0.68165141    -0.20000
C2898       C  0.97747206  0.87078511  0.66144713     0.20300
C2899       C  0.95215384  0.86862466  0.66189717    -0.33000
C2900       C  0.93944366  0.85864524  0.64207675     0.01000
C2901       C  0.95244406  0.85187052  0.62111977    -0.24300
C2902       C  0.05461881  0.85425819  0.62150818    -0.28900
C2903       C  0.06712150  0.86114332  0.64271634     0.06700
C2904       C  0.05396366  0.87073855  0.66239722    -0.27600
H2905       H  0.02624634  0.84097047  0.58407516     0.11400
H2906       H  0.98176602  0.83977755  0.58394747     0.12500
H2907       H  0.02476251  0.88694574  0.69780307     0.11600
H2908       H  0.98034589  0.88595013  0.69759995     0.10800
H2909       H  0.94240298  0.87415435  0.67806098     0.16200
H2910       H  0.94286576  0.84436162  0.60565860     0.12100
H2911       H  0.06459058  0.84712523  0.60612563     0.15000
H2912       H  0.06339987  0.87644911  0.67869791     0.14800
C2913       C  0.89398610  0.01495860  0.66462195    -0.18100
C2914       C  0.89455576  0.98957188  0.66431357    -0.20300
C2915       C  0.87661701  0.97641571  0.65192072     0.20400
C2916       C  0.85812946  0.98898308  0.63936295    -0.03200
C2917       C  0.85753131  0.01460945  0.63970759    -0.06300
C2918       C  0.87547037  0.02761434  0.65254548     0.20600
C2919       C  0.83871875  0.02717197  0.62765845     0.18800
C2920       C  0.82099616  0.01402610  0.61491615    -0.17800
C2921       C  0.82161079  0.98862285  0.61454124    -0.20000
C2922       C  0.83991904  0.97595523  0.62695279     0.20300
C2923       C  0.83992654  0.95050796  0.62777023    -0.33000
C2924       C  0.85781790  0.93784884  0.64094979     0.01000
C2925       C  0.87644824  0.95093697  0.65247792    -0.24300
C2926       C  0.87434828  0.05301903  0.65350462    -0.28900
C2927       C  0.85535603  0.06567535  0.64205771     0.06700
C2928       C  0.83772273  0.05261049  0.62894759    -0.27600
H2929       H  0.90788880  0.02469815  0.67455852     0.11400
H2930       H  0.90886444  0.98021461  0.67404473     0.12500
H2931       H  0.80648449  0.02338248  0.60548784     0.11600
H2932       H  0.80753942  0.97887026  0.60485600     0.10800
H2933       H  0.82560202  0.94057179  0.61863643     0.16200
H2934       H  0.89029768  0.94135231  0.66266509     0.12100
H2935       H  0.88796487  0.06289243  0.66372171     0.15000
H2936       H  0.82304717  0.06219976  0.61999737     0.14800
C2937       C  0.71440367  0.77515019  0.61758276    -0.18100
C2938       C  0.73334168  0.79203773  0.61649566    -0.20300
C2939       C  0.75711015  0.78519036  0.62260600     0.20400
C2940       C  0.76183413  0.76113270  0.63006755    -0.03200
C2941       C  0.74278084  0.74400780  0.63086741    -0.06300
C2942       C  0.71893906  0.75107513  0.62460007     0.20600
C2943       C  0.74763596  0.71978148  0.63769818     0.18800
C2944       C  0.77127869  0.71307509  0.64441148    -0.17800
C2945       C  0.79008274  0.73014394  0.64397382    -0.20000
C2946       C  0.78560389  0.75413623  0.63658824     0.20300
C2947       C  0.80447602  0.77122109  0.63556770    -0.33000
C2948       C  0.79999065  0.79518340  0.62784289     0.01000
C2949       C  0.77621083  0.80199058  0.62140583    -0.24300
C2950       C  0.70014264  0.73387218  0.62514219    -0.28900
C2951       C  0.70508611  0.70958139  0.63107177     0.06700
C2952       C  0.72880646  0.70265830  0.63743989    -0.27600
H2953       H  0.69623218  0.78087107  0.61270630     0.11400
H2954       H  0.72939706  0.81047132  0.61083115     0.12500
H2955       H  0.77525080  0.69459079  0.64989617     0.11600
H2956       H  0.80819325  0.72451068  0.64917546     0.10800
H2957       H  0.82267064  0.76582822  0.64076671     0.16200
H2958       H  0.77246718  0.82048248  0.61575835     0.12100
H2959       H  0.68183549  0.73916434  0.62023161     0.15000
H2960       H  0.73252331  0.68393984  0.64235468     0.14800
C2961       C  0.85531515  0.77213904  0.78659019    -0.18100
C2962       C  0.85623437  0.79062498  0.76916742    -0.20300
C2963       C  0.86257521  0.78534767  0.74505744     0.20400
C2964       C  0.86751179  0.76112513  0.73830683    -0.03200
C2965       C  0.86619804  0.74240202  0.75580962    -0.06300
C2966       C  0.86048401  0.74802465  0.78014831     0.20600
C2967       C  0.87082863  0.71811416  0.74899906     0.18800
C2968       C  0.87669818  0.71278811  0.72479091    -0.17800
C2969       C  0.87833096  0.73138473  0.70752982    -0.20000
C2970       C  0.87389126  0.75561235  0.71411436     0.20300
C2971       C  0.87565665  0.77439043  0.69692836    -0.33000
C2972       C  0.87076398  0.79860972  0.70349552     0.01000
C2973       C  0.86408010  0.80386976  0.72760869    -0.24300
C2974       C  0.86028329  0.72947527  0.79763486    -0.28900
C2975       C  0.86507200  0.70529846  0.79098667     0.06700
C2976       C  0.86982966  0.69965217  0.76657514    -0.27600
H2977       H  0.85067155  0.77672561  0.80514322     0.11400
H2978       H  0.85222926  0.80910684  0.77461221     0.12500
H2979       H  0.88028220  0.69425008  0.71925155     0.11600
H2980       H  0.88310860  0.72681122  0.68900982     0.10800
H2981       H  0.88044045  0.77007816  0.67833648     0.16200
H2982       H  0.86008164  0.82242385  0.73284913     0.12100
H2983       H  0.85620347  0.73377537  0.81640770     0.15000
H2984       H  0.87346551  0.68099371  0.76143274     0.14800
C2985       C  0.71162535  0.88203102  0.72285350    -0.18100
C2986       C  0.72933432  0.88101048  0.70470289    -0.20300
C2987       C  0.75375325  0.87707065  0.71073970     0.20400
C2988       C  0.76044715  0.87426000  0.73532346    -0.03200
C2989       C  0.74252808  0.87491888  0.75359642    -0.06300
C2990       C  0.71800288  0.87886118  0.74731946     0.20600
C2991       C  0.74912545  0.87135831  0.77809033     0.18800
C2992       C  0.77357675  0.86758489  0.78415325    -0.17800
C2993       C  0.79138821  0.86729677  0.76608239    -0.20000
C2994       C  0.78500581  0.87057045  0.74163768     0.20300
C2995       C  0.80270039  0.87002990  0.72337382    -0.33000
C2996       C  0.79605950  0.87244200  0.69886563     0.01000
C2997       C  0.77157857  0.87579041  0.69263583    -0.24300
C2998       C  0.70024035  0.87913698  0.76555854    -0.28900
C2999       C  0.70660317  0.87499877  0.78994234     0.06700
C3000       C  0.73112796  0.87129248  0.79605588    -0.27600
H3001       H  0.69288404  0.88504834  0.71772524     0.11400
H3002       H  0.72392236  0.88328171  0.68592618     0.12500
H3003       H  0.77892302  0.86480709  0.80288239     0.11600
H3004       H  0.81014136  0.86433712  0.77120920     0.10800
H3005       H  0.82157636  0.86713288  0.72814348     0.16200
H3006       H  0.76648509  0.87770381  0.67371425     0.12100
H3007       H  0.68137680  0.88185849  0.76067613     0.15000
H3008       H  0.73621891  0.86819165  0.81481807     0.14800
loop_ 
_geom_bond_atom_site_label_1 
_geom_bond_atom_site_label_2 
_geom_bond_distance 
_geom_bond_site_symmetry_2 
_ccdc_geom_bond_type 
O1          Cr19   2.004       .  S
O1            C9   1.266       .  A
O2          Cr19   1.981       .  S
O2            C3   1.263       .  A
C3            O4   1.266       .  A
C3         C2924   1.480       .  S
O4          Cr20   2.001       .  S
O5          Cr20   1.969       .  S
O5            C6   1.259       .  A
C6            O7   1.268       .  A
C6         C2876   1.477       .  S
O7          Cr21   2.012       .  S
O8          Cr21   1.988       .  S
O8            C9   1.262       .  A
C9         C2900   1.487       .  S
O10         Cr19   1.972       .  S
O10          C18   1.259       .  A
O11         Cr19   2.003       .  S
O11          C12   1.264       .  A
C12          O13   1.258       .  A
C12        C2996   1.471       .  S
O13         Cr20   1.972       .  S
O14         Cr20   2.002       .  S
O14          C15   1.264       .  A
C15          O16   1.259       .  A
C15        C2948   1.483       .  S
O16         Cr21   1.979       .  S
O17         Cr21   2.013       .  S
O17          C18   1.268       .  A
C18        C2972   1.484       .  S
Cr19         O22   1.771       .  S
Cr20         O22   1.774       .  S
Cr21         O22   1.774       .  S
O23         Cr41   2.004       .  S
O23          C31   1.266       .  A
O24         Cr41   1.978       .  S
O24          C25   1.261       .  A
C25          O26   1.267       .  A
C25        C2804   1.482       .  S
O26         Cr42   2.004       .  S
O27         Cr42   1.974       .  S
O27          C28   1.261       .  A
C28          O29   1.268       .  A
C28        C2756   1.483       .  S
O29         Cr43   2.015       .  S
O30         Cr43   1.976       .  S
O30          C31   1.260       .  A
C31        C2780   1.478       .  S
O32         Cr41   1.968       .  S
O32          C40   1.259       .  A
O33         Cr41   2.012       .  S
O33          C34   1.266       .  A
C34          O35   1.260       .  A
C34        C2852   1.486       .  S
O35         Cr42   1.982       .  S
O36         Cr42   1.997       .  S
O36          C37   1.263       .  A
C37          O38   1.258       .  A
C37        C2828   1.467       .  S
O38         Cr43   1.974       .  S
O39         Cr43   2.013       .  S
O39          C40   1.268       .  A
C40        C2999   1.480       .  S
Cr41         O44   1.775       .  S
Cr42         O44   1.775       .  S
Cr43         O44   1.783       .  S
O45         Cr63   2.002       .  S
O45          C53   1.266       .  A
O46         Cr63   1.990       .  S
O46          C47   1.261       .  A
C47          O48   1.265       .  A
C47        C2684   1.488       .  S
O48         Cr64   2.003       .  S
O49         Cr64   1.979       .  S
O49          C50   1.261       .  A
C50          O51   1.269       .  A
C50        C2663   1.481       .  S
O51         Cr65   2.006       .  S
O52         Cr65   1.976       .  S
O52          C53   1.259       .  A
C53        C2708   1.481       .  S
O54         Cr63   1.977       .  S
O54          C62   1.260       .  A
O55         Cr63   2.009       .  S
O55          C56   1.268       .  A
C56          O57   1.261       .  A
C56        C2975   1.475       .  S
O57         Cr64   1.975       .  S
O58         Cr64   2.002       .  S
O58          C59   1.264       .  A
C59          O60   1.259       .  A
C59        C2732   1.478       .  S
O60         Cr65   1.978       .  S
O61         Cr65   2.014       .  S
O61          C62   1.267       .  A
C62        C2855   1.486       .  S
Cr63         O66   1.774       .  S
Cr64         O66   1.776       .  S
Cr65         O66   1.775       .  S
O67         Cr85   2.006       .  S
O67          C75   1.267       .  A
O68         Cr85   1.982       .  S
O68          C69   1.264       .  A
C69          O70   1.263       .  A
C69        C2612   1.475       .  S
O70         Cr86   1.988       .  S
O71         Cr86   1.995       .  S
O71          C72   1.264       .  A
C72          O73   1.265       .  A
C72        C2636   1.487       .  S
O73         Cr87   1.998       .  S
O74         Cr87   1.996       .  S
O74          C75   1.265       .  A
C75        C2588   1.493       .  S
O76         Cr85   1.980       .  S
O76          C84   1.261       .  A
O77         Cr85   1.999       .  S
O77          C78   1.262       .  A
C78          O79   1.261       .  A
C78        C2735   1.479       .  S
O79         Cr86   1.986       .  S
O80         Cr86   1.993       .  S
O80          C81   1.263       .  A
C81          O82   1.261       .  A
C81        C2951   1.472       .  S
O82         Cr87   1.984       .  S
O83         Cr87   1.995       .  S
O83          C84   1.263       .  A
C84        C2831   1.478       .  S
Cr85         O88   1.773       .  S
Cr86         O88   1.776       .  S
Cr87         O88   1.776       .  S
O89        Cr107   1.980       .  S
O89          C97   1.263       .  A
O90        Cr107   1.997       .  S
O90          C91   1.264       .  A
C91          O92   1.262       .  A
C91        C2468   1.481       .  S
O92        Cr108   1.983       .  S
O93        Cr108   2.004       .  S
O93          C94   1.265       .  A
C94          O95   1.261       .  A
C94        C2927   1.480       .  S
O95        Cr109   1.974       .  S
O96        Cr109   2.013       .  S
O96          C97   1.269       .  A
C97        C2495   1.486       .  S
O98        Cr107   1.990       .  S
O98         C106   1.262       .  A
O99        Cr107   1.981       .  S
O99         C100   1.261       .  A
C100        O101   1.265       .  A
C100       C2516   1.477       .  S
O101       Cr108   2.002       .  S
O102       Cr108   1.974       .  S
O102        C103   1.259       .  A
C103        O104   1.267       .  A
C103       C2540   1.482       .  S
O104       Cr109   2.010       .  S
O105       Cr109   1.976       .  S
O105        C106   1.259       .  A
C106       C2564   1.471       .  S
Cr107       O110   1.772       .  S
Cr108       O110   1.774       .  S
Cr109       O110   1.772       .  S
O111       Cr129   1.978       .  S
O111        C119   1.261       .  A
O112       Cr129   2.002       .  S
O112        C113   1.267       .  A
C113        O114   1.261       .  A
C113       C2372   1.475       .  S
O114       Cr130   1.972       .  S
O115       Cr130   2.001       .  S
O115        C116   1.265       .  A
C116        O117   1.261       .  A
C116       C2396   1.480       .  S
O117       Cr131   1.980       .  S
O118       Cr131   2.002       .  S
O118        C119   1.268       .  A
C119       C2660   1.480       .  S
O120       Cr129   2.000       .  S
O120        C128   1.264       .  A
O121       Cr129   1.975       .  S
O121        C122   1.259       .  A
C122        O123   1.262       .  A
C122       C2567   1.467       .  S
O123       Cr130   1.992       .  S
O124       Cr130   1.968       .  S
O124        C125   1.258       .  A
C125        O126   1.266       .  A
C125       C2447   1.479       .  S
O126       Cr131   2.010       .  S
O127       Cr131   1.975       .  S
O127        C128   1.259       .  A
C128       C2420   1.475       .  S
Cr129       O132   1.774       .  S
Cr130       O132   1.770       .  S
Cr131       O132   1.770       .  S
O133       Cr151   2.005       .  S
O133        C141   1.267       .  A
O134       Cr151   1.969       .  S
O134        C135   1.259       .  A
C135        O136   1.267       .  A
C135       C2300   1.480       .  S
O136       Cr152   2.011       .  S
O137       Cr152   1.981       .  S
O137        C138   1.262       .  A
C138        O139   1.267       .  A
C138       C2324   1.484       .  S
O139       Cr153   2.008       .  S
O140       Cr153   1.975       .  S
O140        C141   1.262       .  A
C141       C2783   1.478       .  S
O142       Cr151   1.975       .  S
O142        C150   1.259       .  A
O143       Cr151   2.007       .  S
O143        C144   1.266       .  A
C144        O145   1.260       .  A
C144       C2348   1.481       .  S
O145       Cr152   1.974       .  S
O146       Cr152   2.012       .  S
O146        C147   1.266       .  A
C147        O148   1.260       .  A
C147       C2444   1.481       .  S
O148       Cr153   1.971       .  S
O149       Cr153   2.005       .  S
O149        C150   1.265       .  A
C150       C2543   1.480       .  S
Cr151       O154   1.769       .  S
Cr152       O154   1.771       .  S
Cr153       O154   1.767       .  S
O155       Cr173   1.979       .  S
O155        C163   1.262       .  A
O156       Cr173   1.999       .  S
O156        C157   1.264       .  A
C157        O158   1.260       .  A
C157       C2615   1.473       .  S
O158       Cr174   1.969       .  S
O159       Cr174   2.011       .  S
O159        C160   1.266       .  A
C160        O161   1.260       .  A
C160       C2252   1.483       .  S
O161       Cr175   1.976       .  S
O162       Cr175   2.018       .  S
O162        C163   1.271       .  A
C163       C2279   1.489       .  S
O164       Cr173   1.996       .  S
O164        C172   1.263       .  A
O165       Cr173   1.978       .  S
O165        C166   1.260       .  A
C166        O167   1.265       .  A
C166       C2423   1.474       .  S
O167       Cr174   2.004       .  S
O168       Cr174   1.963       .  S
O168        C169   1.258       .  A
C169        O170   1.268       .  A
C169       C2351   1.480       .  S
O170       Cr175   2.014       .  S
O171       Cr175   1.977       .  S
O171        C172   1.258       .  A
C172       C2519   1.474       .  S
Cr173       O176   1.772       .  S
Cr174       O176   1.769       .  S
Cr175       O176   1.772       .  S
O177       Cr195   1.970       .  S
O177        C185   1.260       .  A
O178       Cr195   2.003       .  S
O178        C179   1.265       .  A
C179        O180   1.260       .  A
C179       C2903   1.483       .  S
O180       Cr196   1.981       .  S
O181       Cr196   1.993       .  S
O181        C182   1.264       .  A
C182        O183   1.262       .  A
C182       C2132   1.483       .  S
O183       Cr197   1.988       .  S
O184       Cr197   2.007       .  S
O184        C185   1.268       .  A
C185       C2159   1.475       .  S
O186       Cr195   2.002       .  S
O186        C194   1.263       .  A
O187       Cr195   1.972       .  S
O187        C188   1.260       .  A
C188        O189   1.266       .  A
C188       C2204   1.478       .  S
O189       Cr196   2.006       .  S
O190       Cr196   1.976       .  S
O190        C191   1.261       .  A
C191        O192   1.267       .  A
C191       C2183   1.481       .  S
O192       Cr197   2.010       .  S
O193       Cr197   1.982       .  S
O193        C194   1.261       .  A
C194       C2228   1.483       .  S
Cr195       O198   1.774       .  S
Cr196       O198   1.771       .  S
Cr197       O198   1.771       .  S
O199       Cr217   1.993       .  S
O199        C207   1.265       .  A
O200       Cr217   1.974       .  S
O200        C201   1.259       .  A
C201        O202   1.267       .  A
C201       C2036   1.483       .  S
O202       Cr218   2.011       .  S
O203       Cr218   1.965       .  S
O203        C204   1.259       .  A
C204        O205   1.271       .  A
C204       C2759   1.481       .  S
O205       Cr219   2.019       .  S
O206       Cr219   1.980       .  S
O206        C207   1.260       .  A
C207       C2060   1.477       .  S
O208       Cr217   1.962       .  S
O208        C216   1.259       .  A
O209       Cr217   2.014       .  S
O209        C210   1.267       .  A
C210        O211   1.259       .  A
C210       C2231   1.480       .  S
O211       Cr218   1.963       .  S
O212       Cr218   2.014       .  S
O212        C213   1.267       .  A
C213        O214   1.262       .  A
C213       C2084   1.491       .  S
O214       Cr219   1.989       .  S
O215       Cr219   2.021       .  S
O215        C216   1.269       .  A
C216       C2108   1.482       .  S
Cr217       O220   1.768       .  S
Cr218       O220   1.765       .  S
Cr219       O220   1.770       .  S
O221       Cr239   1.985       .  S
O221        C229   1.261       .  A
O222       Cr239   2.012       .  S
O222        C223   1.270       .  A
C223        O224   1.263       .  A
C223       C1988   1.484       .  S
O224       Cr240   1.979       .  S
O225       Cr240   2.005       .  S
O225        C226   1.267       .  A
C226        O227   1.261       .  A
C226       C1967   1.482       .  S
O227       Cr241   1.980       .  S
O228       Cr241   2.002       .  S
O228        C229   1.265       .  A
C229       C2687   1.486       .  S
O230       Cr239   2.011       .  S
O230        C238   1.268       .  A
O231       Cr239   1.974       .  S
O231        C232   1.258       .  A
C232        O233   1.263       .  A
C232       C2111   1.481       .  S
O233       Cr240   2.006       .  S
O234       Cr240   1.979       .  S
O234        C235   1.261       .  A
C235        O236   1.266       .  A
C235       C2012   1.477       .  S
O236       Cr241   2.005       .  S
O237       Cr241   1.968       .  S
O237        C238   1.258       .  A
C238       C2207   1.474       .  S
Cr239       O242   1.769       .  S
Cr240       O242   1.775       .  S
Cr241       O242   1.775       .  S
O243       Cr261   1.980       .  S
O243        C251   1.261       .  A
O244       Cr261   2.013       .  S
O244        C245   1.268       .  A
C245        O246   1.260       .  A
C245       C2591   1.491       .  S
O246       Cr262   1.983       .  S
O247       Cr262   2.015       .  S
O247        C248   1.269       .  A
C248        O249   1.261       .  A
C248       C1940   1.482       .  S
O249       Cr263   1.973       .  S
O250       Cr263   2.002       .  S
O250        C251   1.265       .  A
C251       C1919   1.478       .  S
O252       Cr261   2.006       .  S
O252        C260   1.265       .  A
O253       Cr261   1.975       .  S
O253        C254   1.259       .  A
C254        O255   1.269       .  A
C254       C2087   1.490       .  S
O255       Cr262   2.026       .  S
O256       Cr262   1.977       .  S
O256        C257   1.260       .  A
C257        O258   1.264       .  A
C257       C2180   1.480       .  S
O258       Cr263   2.007       .  S
O259       Cr263   1.971       .  S
O259        C260   1.259       .  A
C260       C2015   1.474       .  S
Cr261       O264   1.774       .  S
Cr262       O264   1.776       .  S
Cr263       O264   1.778       .  S
O265       Cr283   1.970       .  S
O265        C273   1.261       .  A
O266       Cr283   2.005       .  S
O266        C267   1.266       .  A
C267        O268   1.261       .  A
C267       C1820   1.481       .  S
O268       Cr284   1.979       .  S
O269       Cr284   2.006       .  S
O269        C270   1.265       .  A
C270        O271   1.260       .  A
C270       C2492   1.480       .  S
O271       Cr285   1.978       .  S
O272       Cr285   2.010       .  S
O272        C273   1.269       .  A
C273       C2156   1.479       .  S
O274       Cr283   2.007       .  S
O274        C282   1.264       .  A
O275       Cr283   1.973       .  S
O275        C276   1.260       .  A
C276        O277   1.265       .  A
C276       C1895   1.475       .  S
O277       Cr284   2.005       .  S
O278       Cr284   1.967       .  S
O278        C279   1.259       .  A
C279        O280   1.267       .  A
C279       C1844   1.480       .  S
O280       Cr285   2.012       .  S
O281       Cr285   1.983       .  S
O281        C282   1.260       .  A
C282       C1868   1.486       .  S
Cr283       O286   1.774       .  S
Cr284       O286   1.775       .  S
Cr285       O286   1.776       .  S
O287       Cr305   1.972       .  S
O287        C295   1.260       .  A
O288       Cr305   2.015       .  S
O288        C289   1.269       .  A
C289        O290   1.260       .  A
C289       C2255   1.479       .  S
O290       Cr306   1.970       .  S
O291       Cr306   2.011       .  S
O291        C292   1.268       .  A
C292        O293   1.259       .  A
C292       C1916   1.476       .  S
O293       Cr307   1.966       .  S
O294       Cr307   2.009       .  S
O294        C295   1.268       .  A
C295       C1751   1.481       .  S
O296       Cr305   2.006       .  S
O296        C304   1.266       .  A
O297       Cr305   1.969       .  S
O297        C298   1.257       .  A
C298        O299   1.265       .  A
C298       C1775   1.476       .  S
O299       Cr306   2.004       .  S
O300       Cr306   1.965       .  S
O300        C301   1.257       .  A
C301        O302   1.266       .  A
C301       C1796   1.475       .  S
O302       Cr307   2.008       .  S
O303       Cr307   1.966       .  S
O303        C304   1.257       .  A
C304       C1892   1.469       .  S
Cr305       O308   1.768       .  S
Cr306       O308   1.771       .  S
Cr307       O308   1.771       .  S
O309       Cr327   2.016       .  S
O309        C317   1.270       .  A
O310       Cr327   1.965       .  S
O310        C311   1.258       .  A
C311        O312   1.270       .  A
C311       C2039   1.474       .  S
O312       Cr328   2.014       .  S
O313       Cr328   1.978       .  S
O313        C314   1.258       .  A
C314        O315   1.265       .  A
C314       C1703   1.482       .  S
O315       Cr329   2.005       .  S
O316       Cr329   1.970       .  S
O316        C317   1.261       .  A
C317       C2303   1.476       .  S
O318       Cr327   1.966       .  S
O318        C326   1.256       .  A
O319       Cr327   2.014       .  S
O319        C320   1.266       .  A
C320        O321   1.259       .  A
C320       C1871   1.485       .  S
O321       Cr328   1.971       .  S
O322       Cr328   2.028       .  S
O322        C323   1.272       .  A
C323        O324   1.260       .  A
C323       C1724   1.489       .  S
O324       Cr329   1.969       .  S
O325       Cr329   2.004       .  S
O325        C326   1.263       .  A
C326       C1772   1.474       .  S
Cr327       O330   1.774       .  S
Cr328       O330   1.769       .  S
Cr329       O330   1.774       .  S
O331       Cr349   2.009       .  S
O331        C339   1.268       .  A
O332       Cr349   1.971       .  S
O332        C333   1.260       .  A
C333        O334   1.266       .  A
C333       C2375   1.476       .  S
O334       Cr350   2.003       .  S
O335       Cr350   1.981       .  S
O335        C336   1.260       .  A
C336        O337   1.267       .  A
C336       C1964   1.484       .  S
O337       Cr351   2.008       .  S
O338       Cr351   1.974       .  S
O338        C339   1.261       .  A
C339       C1676   1.482       .  S
O340       Cr349   1.979       .  S
O340        C348   1.260       .  A
O341       Cr349   2.009       .  S
O341        C342   1.266       .  A
C342        O343   1.259       .  A
C342       C1847   1.481       .  S
O343       Cr350   1.973       .  S
O344       Cr350   2.006       .  S
O344        C345   1.266       .  A
C345        O346   1.257       .  A
C345       C1799   1.473       .  S
O346       Cr351   1.960       .  S
O347       Cr351   2.011       .  S
O347        C348   1.266       .  A
C348       C1727   1.477       .  S
Cr349       O352   1.771       .  S
Cr350       O352   1.773       .  S
Cr351       O352   1.769       .  S
O353       Cr371   2.011       .  S
O353        C361   1.269       .  A
O354       Cr371   1.965       .  S
O354        C355   1.258       .  A
C355        O356   1.269       .  A
C355       C1583   1.479       .  S
O356       Cr372   2.016       .  S
O357       Cr372   1.978       .  S
O357        C358   1.261       .  A
C358        O359   1.267       .  A
C358       C1556   1.485       .  S
O359       Cr373   2.011       .  S
O360       Cr373   1.972       .  S
O360        C361   1.262       .  A
C361       C2879   1.480       .  S
O362       Cr371   1.960       .  S
O362        C370   1.255       .  A
O363       Cr371   2.012       .  S
O363        C364   1.267       .  A
C364        O365   1.259       .  A
C364       C1628   1.483       .  S
O365       Cr372   1.970       .  S
O366       Cr372   2.014       .  S
O366        C367   1.268       .  A
C367        O368   1.259       .  A
C367       C1652   1.483       .  S
O368       Cr373   1.971       .  S
O369       Cr373   2.005       .  S
O369        C370   1.263       .  A
C370       C1604   1.471       .  S
Cr371       O374   1.772       .  S
Cr372       O374   1.770       .  S
Cr373       O374   1.773       .  S
O375       Cr393   1.975       .  S
O375        C383   1.260       .  A
O376       Cr393   2.006       .  S
O376        C377   1.267       .  A
C377        O378   1.262       .  A
C377       C1463   1.479       .  S
O378       Cr394   1.972       .  S
O379       Cr394   2.013       .  S
O379        C380   1.267       .  A
C380        O381   1.262       .  A
C380       C1484   1.483       .  S
O381       Cr395   1.979       .  S
O382       Cr395   2.008       .  S
O382        C383   1.267       .  A
C383       C2711   1.483       .  S
O384       Cr393   2.008       .  S
O384        C392   1.267       .  A
O385       Cr393   1.975       .  S
O385        C386   1.259       .  A
C386        O387   1.264       .  A
C386       C1511   1.471       .  S
O387       Cr394   2.000       .  S
O388       Cr394   1.975       .  S
O388        C389   1.259       .  A
C389        O390   1.265       .  A
C389       C1655   1.480       .  S
O390       Cr395   2.004       .  S
O391       Cr395   1.972       .  S
O391        C392   1.258       .  A
C392       C1532   1.479       .  S
Cr393       O396   1.777       .  S
Cr394       O396   1.771       .  S
Cr395       O396   1.776       .  S
O397       Cr415   1.985       .  S
O397        C405   1.262       .  A
O398       Cr415   2.003       .  S
O398        C399   1.267       .  A
C399        O400   1.261       .  A
C399       C2807   1.483       .  S
O400       Cr416   1.981       .  S
O401       Cr416   2.004       .  S
O401        C402   1.266       .  A
C402        O403   1.261       .  A
C402       C1412   1.476       .  S
O403       Cr417   1.974       .  S
O404       Cr417   2.005       .  S
O404        C405   1.268       .  A
C405       C1388   1.487       .  S
O406       Cr415   2.006       .  S
O406        C414   1.265       .  A
O407       Cr415   1.966       .  S
O407        C408   1.257       .  A
C408        O409   1.265       .  A
C408       C1535   1.472       .  S
O409       Cr416   2.004       .  S
O410       Cr416   1.973       .  S
O410        C411   1.258       .  A
C411        O412   1.265       .  A
C411       C1631   1.482       .  S
O412       Cr417   2.007       .  S
O413       Cr417   1.973       .  S
O413        C414   1.259       .  A
C414       C1439   1.477       .  S
Cr415       O418   1.775       .  S
Cr416       O418   1.776       .  S
Cr417       O418   1.772       .  S
O419       Cr437   1.989       .  S
O419        C427   1.263       .  A
O420       Cr437   2.000       .  S
O420        C421   1.266       .  A
C421        O422   1.259       .  A
C421       C1340   1.469       .  S
O422       Cr438   1.966       .  S
O423       Cr438   2.015       .  S
O423        C424   1.268       .  A
C424        O425   1.262       .  A
C424       C2639   1.487       .  S
O425       Cr439   1.984       .  S
O426       Cr439   1.995       .  S
O426        C427   1.265       .  A
C427       C1364   1.485       .  S
O428       Cr437   2.001       .  S
O428        C436   1.265       .  A
O429       Cr437   1.983       .  S
O429        C430   1.260       .  A
C430        O431   1.265       .  A
C430       C1436   1.483       .  S
O431       Cr438   2.006       .  S
O432       Cr438   1.965       .  S
O432        C433   1.257       .  A
C433        O434   1.264       .  A
C433       C1607   1.471       .  S
O434       Cr439   2.002       .  S
O435       Cr439   1.974       .  S
O435        C436   1.261       .  A
C436       C1508   1.476       .  S
Cr437       O440   1.776       .  S
Cr438       O440   1.774       .  S
Cr439       O440   1.769       .  S
O441       Cr459   1.979       .  S
O441        C449   1.261       .  A
O442       Cr459   1.998       .  S
O442        C443   1.265       .  A
C443        O444   1.258       .  A
C443       C1247   1.469       .  S
O444       Cr460   1.967       .  S
O445       Cr460   2.011       .  S
O445        C446   1.269       .  A
C446        O447   1.258       .  A
C446       C1415   1.473       .  S
O447       Cr461   1.961       .  S
O448       Cr461   2.012       .  S
O448        C449   1.267       .  A
C449       C2327   1.485       .  S
O450       Cr459   2.002       .  S
O450        C458   1.265       .  A
O451       Cr459   1.969       .  S
O451        C452   1.259       .  A
C452        O453   1.266       .  A
C452       C1316   1.482       .  S
O453       Cr460   2.011       .  S
O454       Cr460   1.972       .  S
O454        C455   1.257       .  A
C455        O456   1.267       .  A
C455       C1292   1.482       .  S
O456       Cr461   2.012       .  S
O457       Cr461   1.958       .  S
O457        C458   1.257       .  A
C458       C1271   1.463       .  S
Cr459       O462   1.767       .  S
Cr460       O462   1.771       .  S
Cr461       O462   1.769       .  S
O463       Cr481   2.008       .  S
O463        C471   1.267       .  A
O464       Cr481   1.977       .  S
O464        C465   1.260       .  A
C465        O466   1.268       .  A
C465       C1367   1.484       .  S
O466       Cr482   2.009       .  S
O467       Cr482   1.982       .  S
O467        C468   1.262       .  A
C468        O469   1.268       .  A
C468       C2276   1.487       .  S
O469       Cr483   2.012       .  S
O470       Cr483   1.975       .  S
O470        C471   1.262       .  A
C471       C1172   1.479       .  S
O472       Cr481   1.974       .  S
O472        C480   1.260       .  A
O473       Cr481   2.015       .  S
O473        C474   1.267       .  A
C474        O475   1.259       .  A
C474       C1220   1.485       .  S
O475       Cr482   1.974       .  S
O476       Cr482   2.009       .  S
O476        C477   1.266       .  A
C477        O478   1.260       .  A
C477       C1196   1.482       .  S
O478       Cr483   1.976       .  S
O479       Cr483   2.010       .  S
O479        C480   1.265       .  A
C480       C1319   1.482       .  S
Cr481       O484   1.773       .  S
Cr482       O484   1.772       .  S
Cr483       O484   1.774       .  S
O485       Cr503   2.014       .  S
O485        C493   1.267       .  A
O486       Cr503   1.974       .  S
O486        C487   1.262       .  A
C487        O488   1.267       .  A
C487       C2471   1.481       .  S
O488       Cr504   2.010       .  S
O489       Cr504   1.971       .  S
O489        C490   1.261       .  A
C490        O491   1.269       .  A
C490       C1124   1.483       .  S
O491       Cr505   2.015       .  S
O492       Cr505   1.970       .  S
O492        C493   1.259       .  A
C493       C1580   1.482       .  S
O494       Cr503   1.972       .  S
O494        C502   1.258       .  A
O495       Cr503   2.003       .  S
O495        C496   1.265       .  A
C496        O497   1.259       .  A
C496       C1199   1.472       .  S
O497       Cr504   1.977       .  S
O498       Cr504   2.007       .  S
O498        C499   1.265       .  A
C499        O500   1.257       .  A
C499       C1148   1.476       .  S
O500       Cr505   1.965       .  S
O501       Cr505   2.008       .  S
O501        C502   1.268       .  A
C502       C1295   1.480       .  S
Cr503       O506   1.769       .  S
Cr504       O506   1.773       .  S
Cr505       O506   1.769       .  S
O507       Cr525   1.963       .  S
O507        C515   1.258       .  A
O508       Cr525   2.015       .  S
O508        C509   1.270       .  A
C509        O510   1.261       .  A
C509       C2399   1.476       .  S
O510       Cr526   1.969       .  S
O511       Cr526   2.006       .  S
O511        C512   1.265       .  A
C512        O513   1.258       .  A
C512       C1100   1.477       .  S
O513       Cr527   1.968       .  S
O514       Cr527   2.008       .  S
O514        C515   1.267       .  A
C515       C1460   1.472       .  S
O516       Cr525   2.019       .  S
O516        C524   1.268       .  A
O517       Cr525   1.967       .  S
O517        C518   1.257       .  A
C518        O519   1.262       .  A
C518       C1268   1.466       .  S
O519       Cr526   1.995       .  S
O520       Cr526   1.967       .  S
O520        C521   1.258       .  A
C521        O522   1.267       .  A
C521       C1151   1.477       .  S
O522       Cr527   2.010       .  S
O523       Cr527   1.967       .  S
O523        C524   1.258       .  A
C524       C1223   1.484       .  S
Cr525       O528   1.770       .  S
Cr526       O528   1.773       .  S
Cr527       O528   1.768       .  S
O529       Cr547   2.009       .  S
O529        C537   1.267       .  A
O530       Cr547   1.973       .  S
O530        C531   1.261       .  A
C531        O532   1.268       .  A
C531       C1823   1.482       .  S
O532       Cr548   2.009       .  S
O533       Cr548   1.975       .  S
O533        C534   1.259       .  A
C534        O535   1.266       .  A
C534       C1004   1.479       .  S
O535       Cr549   2.005       .  S
O536       Cr549   1.975       .  S
O536        C537   1.261       .  A
C537       C1127   1.477       .  S
O538       Cr547   1.972       .  S
O538        C546   1.259       .  A
O539       Cr547   2.010       .  S
O539        C540   1.265       .  A
C540        O541   1.258       .  A
C540       C1028   1.473       .  S
O541       Cr548   1.970       .  S
O542       Cr548   2.012       .  S
O542        C543   1.268       .  A
C543        O544   1.258       .  A
C543       C1052   1.482       .  S
O544       Cr549   1.972       .  S
O545       Cr549   1.997       .  S
O545        C546   1.263       .  A
C546       C1076   1.472       .  S
Cr547       O550   1.775       .  S
Cr548       O550   1.775       .  S
Cr549       O550   1.776       .  S
O551       Cr569   2.003       .  S
O551        C559   1.267       .  A
O552       Cr569   1.976       .  S
O552        C553   1.261       .  A
C553        O554   1.267       .  A
C553       C1679   1.478       .  S
O554       Cr570   2.008       .  S
O555       Cr570   1.985       .  S
O555        C556   1.261       .  A
C556        O557   1.263       .  A
C556        C935   1.481       .  S
O557       Cr571   1.996       .  S
O558       Cr571   1.981       .  S
O558        C559   1.263       .  A
C559       C1103   1.481       .  S
O560       Cr569   1.980       .  S
O560        C568   1.260       .  A
O561       Cr569   2.005       .  S
O561        C562   1.264       .  A
C562        O563   1.260       .  A
C562        C980   1.483       .  S
O563       Cr570   1.975       .  S
O564       Cr570   2.014       .  S
O564        C565   1.268       .  A
C565        O566   1.261       .  A
C565        C956   1.484       .  S
O566       Cr571   1.980       .  S
O567       Cr571   1.992       .  S
O567        C568   1.262       .  A
C568       C1079   1.471       .  S
Cr569       O572   1.777       .  S
Cr570       O572   1.771       .  S
Cr571       O572   1.774       .  S
O573       Cr591   1.981       .  S
O573        C581   1.260       .  A
O574       Cr591   2.003       .  S
O574        C575   1.267       .  A
C575        O576   1.262       .  A
C575       C1244   1.478       .  S
O576       Cr592   1.975       .  S
O577       Cr592   2.003       .  S
O577        C578   1.267       .  A
C578        O579   1.261       .  A
C578       C1700   1.479       .  S
O579       Cr593   1.979       .  S
O580       Cr593   2.005       .  S
O580        C581   1.267       .  A
C581        C884   1.483       .  S
O582       Cr591   2.009       .  S
O582        C590   1.267       .  A
O583       Cr591   1.970       .  S
O583        C584   1.258       .  A
C584        O585   1.264       .  A
C584        C911   1.475       .  S
O585       Cr592   2.001       .  S
O586       Cr592   1.978       .  S
O586        C587   1.261       .  A
C587        O588   1.266       .  A
C587        C983   1.485       .  S
O588       Cr593   2.012       .  S
O589       Cr593   1.971       .  S
O589        C590   1.259       .  A
C590       C1055   1.480       .  S
Cr591       O594   1.771       .  S
Cr592       O594   1.768       .  S
Cr593       O594   1.769       .  S
O595       Cr613   2.006       .  S
O595        C603   1.266       .  A
O596       Cr613   1.981       .  S
O596        C597   1.261       .  A
C597        O598   1.266       .  A
C597       C1748   1.484       .  S
O598       Cr614   2.005       .  S
O599       Cr614   1.979       .  S
O599        C600   1.263       .  A
C600        O601   1.268       .  A
C600        C860   1.482       .  S
O601       Cr615   2.007       .  S
O602       Cr615   1.980       .  S
O602        C603   1.261       .  A
C603       C1175   1.482       .  S
O604       Cr613   1.961       .  S
O604        C612   1.257       .  A
O605       Cr613   2.010       .  S
O605        C606   1.266       .  A
C606        O607   1.261       .  A
C606       C1031   1.482       .  S
O607       Cr614   1.976       .  S
O608       Cr614   2.008       .  S
O608        C609   1.265       .  A
C609        O610   1.260       .  A
C609        C959   1.487       .  S
O610       Cr615   1.986       .  S
O611       Cr615   2.004       .  S
O611        C612   1.265       .  A
C612        C908   1.474       .  S
Cr613       O616   1.774       .  S
Cr614       O616   1.770       .  S
Cr615       O616   1.777       .  S
O617       Cr635   1.978       .  S
O617        C625   1.262       .  A
O618       Cr635   2.002       .  S
O618        C619   1.266       .  A
C619        O620   1.261       .  A
C619        C932   1.481       .  S
O620       Cr636   1.981       .  S
O621       Cr636   2.010       .  S
O621        C622   1.267       .  A
C622        O623   1.263       .  A
C622       C1991   1.488       .  S
O623       Cr637   1.984       .  S
O624       Cr637   2.020       .  S
O624        C625   1.271       .  A
C625       C1487   1.489       .  S
O626       Cr635   2.009       .  S
O626        C634   1.264       .  A
O627       Cr635   1.978       .  S
O627        C628   1.261       .  A
C628        O629   1.266       .  A
C628        C836   1.477       .  S
O629       Cr636   2.009       .  S
O630       Cr636   1.977       .  S
O630        C631   1.260       .  A
C631        O632   1.268       .  A
C631        C788   1.488       .  S
O632       Cr637   2.015       .  S
O633       Cr637   1.979       .  S
O633        C634   1.260       .  A
C634        C812   1.484       .  S
Cr635       O638   1.778       .  S
Cr636       O638   1.774       .  S
Cr637       O638   1.771       .  S
O639       Cr657   1.974       .  S
O639        C647   1.260       .  A
O640       Cr657   2.013       .  S
O640        C641   1.269       .  A
C641        O642   1.261       .  A
C641       C1943   1.482       .  S
O642       Cr658   1.975       .  S
O643       Cr658   2.002       .  S
O643        C644   1.266       .  A
C644        O645   1.260       .  A
C644       C1343   1.474       .  S
O645       Cr659   1.971       .  S
O646       Cr659   2.009       .  S
O646        C647   1.267       .  A
C647        C863   1.482       .  S
O648       Cr657   2.011       .  S
O648        C656   1.268       .  A
O649       Cr657   1.968       .  S
O649        C650   1.258       .  A
C650        O651   1.264       .  A
C650        C764   1.480       .  S
O651       Cr658   2.008       .  S
O652       Cr658   1.972       .  S
O652        C653   1.259       .  A
C653        O654   1.266       .  A
C653        C740   1.478       .  S
O654       Cr659   2.008       .  S
O655       Cr659   1.975       .  S
O655        C656   1.260       .  A
C656        C839   1.483       .  S
Cr657       O660   1.766       .  S
Cr658       O660   1.775       .  S
Cr659       O660   1.772       .  S
O661       Cr679   2.012       .  S
O661        C669   1.269       .  A
O662       Cr679   1.972       .  S
O662        C663   1.260       .  A
C663        O664   1.269       .  A
C663       C1559   1.480       .  S
O664       Cr680   2.014       .  S
O665       Cr680   1.975       .  S
O665        C666   1.261       .  A
C666        O667   1.265       .  A
C666       C1007   1.478       .  S
O667       Cr681   2.005       .  S
O668       Cr681   1.973       .  S
O668        C669   1.261       .  A
C669       C2135   1.482       .  S
O670       Cr679   1.974       .  S
O670        C678   1.259       .  A
O671       Cr679   2.014       .  S
O671        C672   1.265       .  A
C672        O673   1.259       .  A
C672        C815   1.483       .  S
O673       Cr680   1.972       .  S
O674       Cr680   2.011       .  S
O674        C675   1.267       .  A
C675        O676   1.262       .  A
C675        C716   1.481       .  S
O676       Cr681   1.978       .  S
O677       Cr681   2.008       .  S
O677        C678   1.265       .  A
C678        C767   1.480       .  S
Cr679       O682   1.774       .  S
Cr680       O682   1.770       .  S
Cr681       O682   1.775       .  S
O683       Cr701   2.014       .  S
O683        C691   1.268       .  A
O684       Cr701   1.978       .  S
O684        C685   1.260       .  A
C685        O686   1.269       .  A
C685        C887   1.485       .  S
O686       Cr702   2.015       .  S
O687       Cr702   1.959       .  S
O687        C688   1.258       .  A
C688        O689   1.266       .  A
C688       C2063   1.462       .  S
O689       Cr703   2.007       .  S
O690       Cr703   1.975       .  S
O690        C691   1.258       .  A
C691       C1391   1.486       .  S
O692       Cr701   1.960       .  S
O692        C700   1.257       .  A
O693       Cr701   2.016       .  S
O693        C694   1.268       .  A
C694        O695   1.259       .  A
C694        C719   1.478       .  S
O695       Cr702   1.969       .  S
O696       Cr702   2.016       .  S
O696        C697   1.267       .  A
C697        O698   1.260       .  A
C697        C791   1.489       .  S
O698       Cr703   1.980       .  S
O699       Cr703   2.009       .  S
O699        C700   1.267       .  A
C700        C743   1.475       .  S
Cr701       O704   1.769       .  S
Cr702       O704   1.770       .  S
Cr703       O704   1.775       .  S
C705        C706   1.399       .  A
C705        C710   1.403       .  A
C705        H721   1.084       .  S
C706        C707   1.404       .  A
C706        H722   1.084       .  S
C707        C717   1.404       .  A
C707        C708   1.412       .  A
C708        C714   1.412       .  A
C708        C709   1.413       .  A
C709        C711   1.412       .  A
C709        C710   1.412       .  A
C710        C718   1.403       .  A
C711        C720   1.404       .  A
C711        C712   1.404       .  A
C712        C713   1.400       .  A
C712        H723   1.084       .  S
C713        C714   1.404       .  A
C713        H724   1.084       .  S
C714        C715   1.405       .  A
C715        C716   1.408       .  A
C715        H725   1.084       .  S
C716        C717   1.406       .  A
C717        H726   1.084       .  S
C718        C719   1.405       .  A
C718        H727   1.084       .  S
C719        C720   1.407       .  A
C720        H728   1.084       .  S
C729        C730   1.398       .  A
C729        C734   1.403       .  A
C729        H745   1.084       .  S
C730        C731   1.403       .  A
C730        H746   1.084       .  S
C731        C741   1.401       .  A
C731        C732   1.411       .  A
C732        C738   1.411       .  A
C732        C733   1.409       .  A
C733        C735   1.411       .  A
C733        C734   1.412       .  A
C734        C742   1.401       .  A
C735        C744   1.399       .  A
C735        C736   1.403       .  A
C736        C737   1.397       .  A
C736        H747   1.084       .  S
C737        C738   1.403       .  A
C737        H748   1.084       .  S
C738        C739   1.400       .  A
C739        C740   1.407       .  A
C739        H749   1.084       .  S
C740        C741   1.407       .  A
C741        H750   1.084       .  S
C742        C743   1.405       .  A
C742        H751   1.084       .  S
C743        C744   1.407       .  A
C744        H752   1.084       .  S
C753        C754   1.400       .  A
C753        C758   1.404       .  A
C753        H769   1.084       .  S
C754        C755   1.404       .  A
C754        H770   1.084       .  S
C755        C765   1.406       .  A
C755        C756   1.412       .  A
C756        C762   1.410       .  A
C756        C757   1.411       .  A
C757        C759   1.412       .  A
C757        C758   1.410       .  A
C758        C766   1.403       .  A
C759        C768   1.401       .  A
C759        C760   1.402       .  A
C760        C761   1.396       .  A
C760        H771   1.084       .  S
C761        C762   1.402       .  A
C761        H772   1.084       .  S
C762        C763   1.398       .  A
C763        C764   1.406       .  A
C763        H773   1.084       .  S
C764        C765   1.408       .  A
C765        H774   1.084       .  S
C766        C767   1.408       .  A
C766        H775   1.084       .  S
C767        C768   1.406       .  A
C768        H776   1.084       .  S
C777        C778   1.400       .  A
C777        C782   1.404       .  A
C777        H793   1.083       .  S
C778        C779   1.404       .  A
C778        H794   1.084       .  S
C779        C789   1.405       .  A
C779        C780   1.411       .  A
C780        C786   1.411       .  A
C780        C781   1.415       .  A
C781        C783   1.411       .  A
C781        C782   1.411       .  A
C782        C790   1.406       .  A
C783        C792   1.406       .  A
C783        C784   1.404       .  A
C784        C785   1.400       .  A
C784        H795   1.084       .  S
C785        C786   1.404       .  A
C785        H796   1.084       .  S
C786        C787   1.406       .  A
C787        C788   1.410       .  A
C787        H797   1.084       .  S
C788        C789   1.409       .  A
C789        H798   1.084       .  S
C790        C791   1.409       .  A
C790        H799   1.084       .  S
C791        C792   1.410       .  A
C792        H800   1.084       .  S
C801        C802   1.398       .  A
C801        C806   1.403       .  A
C801        H817   1.084       .  S
C802        C803   1.403       .  A
C802        H818   1.084       .  S
C803        C813   1.401       .  A
C803        C804   1.411       .  A
C804        C810   1.411       .  A
C804        C805   1.413       .  A
C805        C807   1.412       .  A
C805        C806   1.411       .  A
C806        C814   1.401       .  A
C807        C816   1.407       .  A
C807        C808   1.404       .  A
C808        C809   1.401       .  A
C808        H819   1.084       .  S
C809        C810   1.405       .  A
C809        H820   1.083       .  S
C810        C811   1.407       .  A
C811        C812   1.410       .  A
C811        H821   1.084       .  S
C812        C813   1.407       .  A
C813        H822   1.084       .  S
C814        C815   1.408       .  A
C814        H823   1.084       .  S
C815        C816   1.409       .  A
C816        H824   1.084       .  S
C825        C826   1.399       .  A
C825        C830   1.404       .  A
C825        H841   1.084       .  S
C826        C827   1.403       .  A
C826        H842   1.083       .  S
C827        C837   1.405       .  A
C827        C828   1.412       .  A
C828        C834   1.411       .  A
C828        C829   1.413       .  A
C829        C831   1.412       .  A
C829        C830   1.411       .  A
C830        C838   1.403       .  A
C831        C840   1.405       .  A
C831        C832   1.404       .  A
C832        C833   1.400       .  A
C832        H843   1.083       .  S
C833        C834   1.404       .  A
C833        H844   1.084       .  S
C834        C835   1.404       .  A
C835        C836   1.406       .  A
C835        H845   1.085       .  S
C836        C837   1.406       .  A
C837        H846   1.084       .  S
C838        C839   1.407       .  A
C838        H847   1.084       .  S
C839        C840   1.408       .  A
C840        H848   1.084       .  S
C849        C850   1.399       .  A
C849        C854   1.403       .  A
C849        H865   1.084       .  S
C850        C851   1.404       .  A
C850        H866   1.084       .  S
C851        C861   1.402       .  A
C851        C852   1.411       .  A
C852        C858   1.412       .  A
C852        C853   1.412       .  A
C853        C855   1.411       .  A
C853        C854   1.411       .  A
C854        C862   1.403       .  A
C855        C864   1.404       .  A
C855        C856   1.404       .  A
C856        C857   1.399       .  A
C856        H867   1.084       .  S
C857        C858   1.404       .  A
C857        H868   1.084       .  S
C858        C859   1.404       .  A
C859        C860   1.408       .  A
C859        H869   1.084       .  S
C860        C861   1.408       .  A
C861        H870   1.084       .  S
C862        C863   1.408       .  A
C862        H871   1.084       .  S
C863        C864   1.408       .  A
C864        H872   1.084       .  S
C873        C874   1.396   1_565  A
C873        C878   1.402       .  A
C873        H889   1.084       .  S
C874        C875   1.402       .  A
C874        H890   1.084       .  S
C875        C885   1.398       .  A
C875        C876   1.410       .  A
C876        C882   1.412       .  A
C876        C877   1.413   1_545  A
C877        C879   1.411       .  A
C877        C878   1.411       .  A
C878        C886   1.401       .  A
C879        C888   1.407       .  A
C879        C880   1.405       .  A
C880        C881   1.402   1_565  A
C880        H891   1.083       .  S
C881        C882   1.405       .  A
C881        H892   1.083       .  S
C882        C883   1.408       .  A
C883        C884   1.410       .  A
C883        H893   1.084       .  S
C884        C885   1.407       .  A
C885        H894   1.084       .  S
C886        C887   1.407       .  A
C886        H895   1.084       .  S
C887        C888   1.410       .  A
C888        H896   1.084       .  S
C897        C898   1.398       .  A
C897        C902   1.403       .  A
C897        H913   1.084       .  S
C898        C899   1.403       .  A
C898        H914   1.084       .  S
C899        C909   1.401       .  A
C899        C900   1.412       .  A
C900        C906   1.410       .  A
C900        C901   1.408       .  A
C901        C903   1.412       .  A
C901        C902   1.411       .  A
C902        C910   1.400       .  A
C903        C912   1.399       .  A
C903        C904   1.402       .  A
C904        C905   1.396       .  A
C904        H915   1.084       .  S
C905        C906   1.403       .  A
C905        H916   1.084       .  S
C906        C907   1.397       .  A
C907        C908   1.406       .  A
C907        H917   1.084       .  S
C908        C909   1.406       .  A
C909        H918   1.084       .  S
C910        C911   1.407       .  A
C910        H919   1.084       .  S
C911        C912   1.406       .  A
C912        H920   1.084       .  S
C921        C922   1.400       .  A
C921        C926   1.404       .  A
C921        H937   1.083       .  S
C922        C923   1.404       .  A
C922        H938   1.084       .  S
C923        C933   1.405       .  A
C923        C924   1.412       .  A
C924        C930   1.411       .  A
C924        C925   1.411       .  A
C925        C927   1.410       .  A
C925        C926   1.412       .  A
C926        C934   1.405       .  A
C927        C936   1.399       .  A
C927        C928   1.403       .  A
C928        C929   1.397       .  A
C928        H939   1.084       .  S
C929        C930   1.403       .  A
C929        H940   1.084       .  S
C930        C931   1.399       .  A
C931        C932   1.407       .  A
C931        H941   1.084       .  S
C932        C933   1.408       .  A
C933        H942   1.084       .  S
C934        C935   1.407       .  A
C934        H943   1.084       .  S
C935        C936   1.408       .  A
C936        H944   1.084       .  S
C945        C946   1.400       .  A
C945        C950   1.404       .  A
C945        H961   1.084       .  S
C946        C947   1.404       .  A
C946        H962   1.084       .  S
C947        C957   1.406       .  A
C947        C948   1.412       .  A
C948        C954   1.411       .  A
C948        C949   1.415       .  A
C949        C951   1.412       .  A
C949        C950   1.411       .  A
C950        C958   1.405       .  A
C951        C960   1.408       .  A
C951        C952   1.404       .  A
C952        C953   1.401       .  A
C952        H963   1.083       .  S
C953        C954   1.404       .  A
C953        H964   1.084       .  S
C954        C955   1.406       .  A
C955        C956   1.408       .  A
C955        H965   1.084       .  S
C956        C957   1.407       .  A
C957        H966   1.084       .  S
C958        C959   1.408       .  A
C958        H967   1.084       .  S
C959        C960   1.409       .  A
C960        H968   1.084       .  S
C969        C970   1.397       .  A
C969        C974   1.403       .  A
C969        H985   1.084       .  S
C970        C971   1.403       .  A
C970        H986   1.084       .  S
C971        C981   1.401       .  A
C971        C972   1.411       .  A
C972        C978   1.411       .  A
C972        C973   1.413       .  A
C973        C975   1.411       .  A
C973        C974   1.411       .  A
C974        C982   1.401       .  A
C975        C984   1.406       .  A
C975        C976   1.405       .  A
C976        C977   1.401       .  A
C976        H987   1.083       .  S
C977        C978   1.405       .  A
C977        H988   1.084       .  S
C978        C979   1.406       .  A
C979        C980   1.410       .  A
C979        H989   1.084       .  S
C980        C981   1.407       .  A
C981        H990   1.084       .  S
C982        C983   1.407       .  A
C982        H991   1.084       .  S
C983        C984   1.410       .  A
C984        H992   1.084       .  S
C993        C994   1.396   1_565  A
C993        C998   1.402       .  A
C993       H1009   1.084       .  S
C994        C995   1.402       .  A
C994       H1010   1.084       .  S
C995       C1005   1.400       .  A
C995        C996   1.411       .  A
C996       C1002   1.412       .  A
C996        C997   1.412   1_545  A
C997        C999   1.412       .  A
C997        C998   1.411       .  A
C998       C1006   1.400       .  A
C999       C1008   1.406       .  A
C999       C1000   1.405       .  A
C1000      C1001   1.401   1_565  A
C1000      H1011   1.083       .  S
C1001      C1002   1.405       .  A
C1001      H1012   1.084       .  S
C1002      C1003   1.406       .  A
C1003      C1004   1.408       .  A
C1003      H1013   1.084       .  S
C1004      C1005   1.405       .  A
C1005      H1014   1.084       .  S
C1006      C1007   1.404       .  A
C1006      H1015   1.084       .  S
C1007      C1008   1.409       .  A
C1008      H1016   1.084       .  S
C1017      C1018   1.400       .  A
C1017      C1022   1.404       .  A
C1017      H1033   1.083       .  S
C1018      C1019   1.404       .  A
C1018      H1034   1.084       .  S
C1019      C1029   1.403       .  A
C1019      C1020   1.412       .  A
C1020      C1026   1.413       .  A
C1020      C1021   1.412       .  A
C1021      C1023   1.411       .  A
C1021      C1022   1.412       .  A
C1022      C1030   1.404       .  A
C1023      C1032   1.402       .  A
C1023      C1024   1.403       .  A
C1024      C1025   1.399       .  A
C1024      H1035   1.084       .  S
C1025      C1026   1.403       .  A
C1025      H1036   1.084       .  S
C1026      C1027   1.403       .  A
C1027      C1028   1.404       .  A
C1027      H1037   1.085       .  S
C1028      C1029   1.405       .  A
C1029      H1038   1.084       .  S
C1030      C1031   1.408       .  A
C1030      H1039   1.084       .  S
C1031      C1032   1.407       .  A
C1032      H1040   1.084       .  S
C1041      C1042   1.400       .  A
C1041      C1046   1.404       .  A
C1041      H1057   1.084       .  S
C1042      C1043   1.404       .  A
C1042      H1058   1.084       .  S
C1043      C1053   1.405       .  A
C1043      C1044   1.411       .  A
C1044      C1050   1.411       .  A
C1044      C1045   1.412       .  A
C1045      C1047   1.412       .  A
C1045      C1046   1.411       .  A
C1046      C1054   1.403       .  A
C1047      C1056   1.402       .  A
C1047      C1048   1.403       .  A
C1048      C1049   1.398       .  A
C1048      H1059   1.084       .  S
C1049      C1050   1.403       .  A
C1049      H1060   1.084       .  S
C1050      C1051   1.401       .  A
C1051      C1052   1.406       .  A
C1051      H1061   1.084       .  S
C1052      C1053   1.410       .  A
C1053      H1062   1.084       .  S
C1054      C1055   1.408       .  A
C1054      H1063   1.084       .  S
C1055      C1056   1.406       .  A
C1056      H1064   1.084       .  S
C1065      C1066   1.398       .  A
C1065      C1070   1.403       .  A
C1065      H1081   1.084       .  S
C1066      C1067   1.403       .  A
C1066      H1082   1.084       .  S
C1067      C1077   1.399       .  A
C1067      C1068   1.410       .  A
C1068      C1074   1.413       .  A
C1068      C1069   1.409       .  A
C1069      C1071   1.410       .  A
C1069      C1070   1.413       .  A
C1070      C1078   1.403       .  A
C1071      C1080   1.398       .  A
C1071      C1072   1.403       .  A
C1072      C1073   1.397       .  A
C1072      H1083   1.084       .  S
C1073      C1074   1.402       .  A
C1073      H1084   1.084       .  S
C1074      C1075   1.401       .  A
C1075      C1076   1.404       .  A
C1075      H1085   1.084       .  S
C1076      C1077   1.406       .  A
C1077      H1086   1.084       .  S
C1078      C1079   1.404       .  A
C1078      H1087   1.084       .  S
C1079      C1080   1.406       .  A
C1080      H1088   1.085       .  S
C1089      C1090   1.399   1_455  A
C1089      C1094   1.403       .  A
C1089      H1105   1.083       .  S
C1090      C1091   1.403       .  A
C1090      H1106   1.084       .  S
C1091      C1101   1.401       .  A
C1091      C1092   1.411       .  A
C1092      C1098   1.412       .  A
C1092      C1093   1.410   1_655  A
C1093      C1095   1.410       .  A
C1093      C1094   1.412       .  A
C1094      C1102   1.404       .  A
C1095      C1104   1.400       .  A
C1095      C1096   1.403       .  A
C1096      C1097   1.397   1_455  A
C1096      H1107   1.084       .  S
C1097      C1098   1.403       .  A
C1097      H1108   1.084       .  S
C1098      C1099   1.401       .  A
C1099      C1100   1.406       .  A
C1099      H1109   1.084       .  S
C1100      C1101   1.407       .  A
C1101      H1110   1.084       .  S
C1102      C1103   1.407       .  A
C1102      H1111   1.084       .  S
C1103      C1104   1.408       .  A
C1104      H1112   1.084       .  S
C1113      C1114   1.400   1_455  A
C1113      C1118   1.404       .  A
C1113      H1129   1.084       .  S
C1114      C1115   1.404       .  A
C1114      H1130   1.084       .  S
C1115      C1125   1.406       .  A
C1115      C1116   1.412       .  A
C1116      C1122   1.411       .  A
C1116      C1117   1.412   1_655  A
C1117      C1119   1.412       .  A
C1117      C1118   1.411       .  A
C1118      C1126   1.405       .  A
C1119      C1128   1.402       .  A
C1119      C1120   1.403       .  A
C1120      C1121   1.398   1_455  A
C1120      H1131   1.084       .  S
C1121      C1122   1.403       .  A
C1121      H1132   1.084       .  S
C1122      C1123   1.401       .  A
C1123      C1124   1.407       .  A
C1123      H1133   1.084       .  S
C1124      C1125   1.409       .  A
C1125      H1134   1.084       .  S
C1126      C1127   1.407       .  A
C1126      H1135   1.084       .  S
C1127      C1128   1.405       .  A
C1128      H1136   1.084       .  S
C1137      C1138   1.399       .  A
C1137      C1142   1.404       .  A
C1137      H1153   1.082       .  S
C1138      C1139   1.403       .  A
C1138      H1154   1.085       .  S
C1139      C1149   1.401       .  A
C1139      C1140   1.411       .  A
C1140      C1146   1.412       .  A
C1140      C1141   1.410       .  A
C1141      C1143   1.411       .  A
C1141      C1142   1.411       .  A
C1142      C1150   1.402       .  A
C1143      C1152   1.399       .  A
C1143      C1144   1.402       .  A
C1144      C1145   1.397       .  A
C1144      H1155   1.084       .  S
C1145      C1146   1.403       .  A
C1145      H1156   1.083       .  S
C1146      C1147   1.400       .  A
C1147      C1148   1.405       .  A
C1147      H1157   1.084       .  S
C1148      C1149   1.407       .  A
C1149      H1158   1.085       .  S
C1150      C1151   1.408       .  A
C1150      H1159   1.083       .  S
C1151      C1152   1.405       .  A
C1152      H1160   1.085       .  S
C1161      C1162   1.399       .  A
C1161      C1166   1.403       .  A
C1161      H1177   1.084       .  S
C1162      C1163   1.403       .  A
C1162      H1178   1.084       .  S
C1163      C1173   1.403       .  A
C1163      C1164   1.412       .  A
C1164      C1170   1.411       .  A
C1164      C1165   1.413       .  A
C1165      C1167   1.412       .  A
C1165      C1166   1.411       .  A
C1166      C1174   1.402       .  A
C1167      C1176   1.405       .  A
C1167      C1168   1.404       .  A
C1168      C1169   1.400       .  A
C1168      H1179   1.084       .  S
C1169      C1170   1.404       .  A
C1169      H1180   1.084       .  S
C1170      C1171   1.404       .  A
C1171      C1172   1.407       .  A
C1171      H1181   1.084       .  S
C1172      C1173   1.406       .  A
C1173      H1182   1.084       .  S
C1174      C1175   1.407       .  A
C1174      H1183   1.084       .  S
C1175      C1176   1.408       .  A
C1176      H1184   1.084       .  S
C1185      C1186   1.398       .  A
C1185      C1190   1.403       .  A
C1185      H1201   1.084       .  S
C1186      C1187   1.404       .  A
C1186      H1202   1.084       .  S
C1187      C1197   1.403       .  A
C1187      C1188   1.412       .  A
C1188      C1194   1.411       .  A
C1188      C1189   1.412       .  A
C1189      C1191   1.413       .  A
C1189      C1190   1.411       .  A
C1190      C1198   1.401       .  A
C1191      C1200   1.405       .  A
C1191      C1192   1.403       .  A
C1192      C1193   1.400       .  A
C1192      H1203   1.083       .  S
C1193      C1194   1.404       .  A
C1193      H1204   1.084       .  S
C1194      C1195   1.404       .  A
C1195      C1196   1.408       .  A
C1195      H1205   1.084       .  S
C1196      C1197   1.407       .  A
C1197      H1206   1.084       .  S
C1198      C1199   1.404       .  A
C1198      H1207   1.085       .  S
C1199      C1200   1.404       .  A
C1200      H1208   1.084       .  S
C1209      C1210   1.398       .  A
C1209      C1214   1.404       .  A
C1209      H1225   1.084       .  S
C1210      C1211   1.403       .  A
C1210      H1226   1.084       .  S
C1211      C1221   1.402       .  A
C1211      C1212   1.411       .  A
C1212      C1218   1.411       .  A
C1212      C1213   1.413       .  A
C1213      C1215   1.412       .  A
C1213      C1214   1.411       .  A
C1214      C1222   1.402       .  A
C1215      C1224   1.405       .  A
C1215      C1216   1.404       .  A
C1216      C1217   1.400       .  A
C1216      H1227   1.083       .  S
C1217      C1218   1.404       .  A
C1217      H1228   1.083       .  S
C1218      C1219   1.405       .  A
C1219      C1220   1.409       .  A
C1219      H1229   1.084       .  S
C1220      C1221   1.408       .  A
C1221      H1230   1.084       .  S
C1222      C1223   1.409       .  A
C1222      H1231   1.084       .  S
C1223      C1224   1.408       .  A
C1224      H1232   1.084       .  S
C1233      C1234   1.398       .  A
C1233      C1238   1.403       .  A
C1233      H1249   1.084       .  S
C1234      C1235   1.403       .  A
C1234      H1250   1.084       .  S
C1235      C1245   1.400       .  A
C1235      C1236   1.411       .  A
C1236      C1242   1.412       .  A
C1236      C1237   1.409       .  A
C1237      C1239   1.411       .  A
C1237      C1238   1.412       .  A
C1238      C1246   1.400       .  A
C1239      C1248   1.400       .  A
C1239      C1240   1.402       .  A
C1240      C1241   1.398       .  A
C1240      H1251   1.084       .  S
C1241      C1242   1.403       .  A
C1241      H1252   1.084       .  S
C1242      C1243   1.401       .  A
C1243      C1244   1.406       .  A
C1243      H1253   1.084       .  S
C1244      C1245   1.407       .  A
C1245      H1254   1.084       .  S
C1246      C1247   1.404       .  A
C1246      H1255   1.084       .  S
C1247      C1248   1.404       .  A
C1248      H1256   1.085       .  S
C1257      C1258   1.397       .  A
C1257      C1262   1.403       .  A
C1257      H1273   1.084       .  S
C1258      C1259   1.403       .  A
C1258      H1274   1.083       .  S
C1259      C1269   1.399       .  A
C1259      C1260   1.412       .  A
C1260      C1266   1.412       .  A
C1260      C1261   1.406       .  A
C1261      C1263   1.411       .  A
C1261      C1262   1.412       .  A
C1262      C1270   1.399       .  A
C1263      C1272   1.396       .  A
C1263      C1264   1.402       .  A
C1264      C1265   1.396       .  A
C1264      H1275   1.084       .  S
C1265      C1266   1.403       .  A
C1265      H1276   1.083       .  S
C1266      C1267   1.397       .  A
C1267      C1268   1.404       .  A
C1267      H1277   1.084       .  S
C1268      C1269   1.403       .  A
C1269      H1278   1.084       .  S
C1270      C1271   1.403       .  A
C1270      H1279   1.085       .  S
C1271      C1272   1.402       .  A
C1272      H1280   1.085       .  S
C1281      C1282   1.401       .  A
C1281      C1286   1.405       .  A
C1281      H1297   1.084       .  S
C1282      C1283   1.405       .  A
C1282      H1298   1.084       .  S
C1283      C1293   1.405       .  A
C1283      C1284   1.411       .  A
C1284      C1290   1.411       .  A
C1284      C1285   1.411       .  A
C1285      C1287   1.411       .  A
C1285      C1286   1.412       .  A
C1286      C1294   1.405       .  A
C1287      C1296   1.399       .  A
C1287      C1288   1.402       .  A
C1288      C1289   1.396       .  A
C1288      H1299   1.084       .  S
C1289      C1290   1.402       .  A
C1289      H1300   1.083       .  S
C1290      C1291   1.400       .  A
C1291      C1292   1.406       .  A
C1291      H1301   1.084       .  S
C1292      C1293   1.410       .  A
C1293      H1302   1.084       .  S
C1294      C1295   1.410       .  A
C1294      H1303   1.084       .  S
C1295      C1296   1.405       .  A
C1296      H1304   1.084       .  S
C1305      C1306   1.396       .  A
C1305      C1310   1.402       .  A
C1305      H1321   1.084       .  S
C1306      C1307   1.402       .  A
C1306      H1322   1.084       .  S
C1307      C1317   1.399       .  A
C1307      C1308   1.411       .  A
C1308      C1314   1.412       .  A
C1308      C1309   1.412       .  A
C1309      C1311   1.411       .  A
C1309      C1310   1.411       .  A
C1310      C1318   1.400       .  A
C1311      C1320   1.405       .  A
C1311      C1312   1.405       .  A
C1312      C1313   1.401       .  A
C1312      H1323   1.084       .  S
C1313      C1314   1.404       .  A
C1313      H1324   1.083       .  S
C1314      C1315   1.406       .  A
C1315      C1316   1.409       .  A
C1315      H1325   1.084       .  S
C1316      C1317   1.407       .  A
C1317      H1326   1.084       .  S
C1318      C1319   1.406       .  A
C1318      H1327   1.084       .  S
C1319      C1320   1.410       .  A
C1320      H1328   1.084       .  S
C1329      C1330   1.398       .  A
C1329      C1334   1.403       .  A
C1329      H1345   1.084       .  S
C1330      C1331   1.403       .  A
C1330      H1346   1.084       .  S
C1331      C1341   1.401       .  A
C1331      C1332   1.412       .  A
C1332      C1338   1.411       .  A
C1332      C1333   1.408       .  A
C1333      C1335   1.412       .  A
C1333      C1334   1.411       .  A
C1334      C1342   1.400       .  A
C1335      C1344   1.399       .  A
C1335      C1336   1.402       .  A
C1336      C1337   1.397       .  A
C1336      H1347   1.084       .  S
C1337      C1338   1.402       .  A
C1337      H1348   1.084       .  S
C1338      C1339   1.398       .  A
C1339      C1340   1.403       .  A
C1339      H1349   1.085       .  S
C1340      C1341   1.405       .  A
C1341      H1350   1.084       .  S
C1342      C1343   1.407       .  A
C1342      H1351   1.084       .  S
C1343      C1344   1.405       .  A
C1344      H1352   1.084       .  S
C1353      C1354   1.396       .  A
C1353      C1358   1.402       .  A
C1353      H1369   1.084       .  S
C1354      C1355   1.403       .  A
C1354      H1370   1.084       .  S
C1355      C1365   1.398       .  A
C1355      C1356   1.409       .  A
C1356      C1362   1.413       .  A
C1356      C1357   1.413       .  A
C1357      C1359   1.411       .  A
C1357      C1358   1.411       .  A
C1358      C1366   1.400       .  A
C1359      C1368   1.407       .  A
C1359      C1360   1.405       .  A
C1360      C1361   1.402       .  A
C1360      H1371   1.084       .  S
C1361      C1362   1.405       .  A
C1361      H1372   1.083       .  S
C1362      C1363   1.409       .  A
C1363      C1364   1.409       .  A
C1363      H1373   1.084       .  S
C1364      C1365   1.409       .  A
C1365      H1374   1.084       .  S
C1366      C1367   1.406       .  A
C1366      H1375   1.084       .  S
C1367      C1368   1.410       .  A
C1368      H1376   1.084       .  S
C1377      C1378   1.404       .  A
C1377      C1382   1.406       .  A
C1377      H1393   1.084       .  S
C1378      C1379   1.406       .  A
C1378      H1394   1.083       .  S
C1379      C1389   1.411       .  A
C1379      C1380   1.413       .  A
C1380      C1386   1.410       .  A
C1380      C1381   1.414       .  A
C1381      C1383   1.412       .  A
C1381      C1382   1.411       .  A
C1382      C1390   1.409       .  A
C1383      C1392   1.400       .  A
C1383      C1384   1.402       .  A
C1384      C1385   1.395       .  A
C1384      H1395   1.084       .  S
C1385      C1386   1.402       .  A
C1385      H1396   1.084       .  S
C1386      C1387   1.398       .  A
C1387      C1388   1.407       .  A
C1387      H1397   1.084       .  S
C1388      C1389   1.411       .  A
C1389      H1398   1.084       .  S
C1390      C1391   1.412       .  A
C1390      H1399   1.084       .  S
C1391      C1392   1.405       .  A
C1392      H1400   1.084       .  S
C1401      C1402   1.397   1_545  A
C1401      C1406   1.402       .  A
C1401      H1417   1.084       .  S
C1402      C1403   1.403       .  A
C1402      H1418   1.084       .  S
C1403      C1413   1.401       .  A
C1403      C1404   1.411       .  A
C1404      C1410   1.412       .  A
C1404      C1405   1.410   1_565  A
C1405      C1407   1.411       .  A
C1405      C1406   1.412       .  A
C1406      C1414   1.400       .  A
C1407      C1416   1.401       .  A
C1407      C1408   1.403       .  A
C1408      C1409   1.399   1_545  A
C1408      H1419   1.084       .  S
C1409      C1410   1.404       .  A
C1409      H1420   1.084       .  S
C1410      C1411   1.402       .  A
C1411      C1412   1.407       .  A
C1411      H1421   1.084       .  S
C1412      C1413   1.405       .  A
C1413      H1422   1.084       .  S
C1414      C1415   1.404       .  A
C1414      H1423   1.084       .  S
C1415      C1416   1.407       .  A
C1416      H1424   1.084       .  S
C1425      C1426   1.401       .  A
C1425      C1430   1.404       .  A
C1425      H1441   1.084       .  S
C1426      C1427   1.405       .  A
C1426      H1442   1.083       .  S
C1427      C1437   1.407       .  A
C1427      C1428   1.412       .  A
C1428      C1434   1.411       .  A
C1428      C1429   1.413       .  A
C1429      C1431   1.412       .  A
C1429      C1430   1.411       .  A
C1430      C1438   1.404       .  A
C1431      C1440   1.402       .  A
C1431      C1432   1.403       .  A
C1432      C1433   1.398       .  A
C1432      H1443   1.084       .  S
C1433      C1434   1.403       .  A
C1433      H1444   1.084       .  S
C1434      C1435   1.402       .  A
C1435      C1436   1.407       .  A
C1435      H1445   1.084       .  S
C1436      C1437   1.409       .  A
C1437      H1446   1.084       .  S
C1438      C1439   1.407       .  A
C1438      H1447   1.084       .  S
C1439      C1440   1.405       .  A
C1440      H1448   1.084       .  S
C1449      C1450   1.398       .  A
C1449      C1454   1.403       .  A
C1449      H1465   1.084       .  S
C1450      C1451   1.402       .  A
C1450      H1466   1.084       .  S
C1451      C1461   1.401       .  A
C1451      C1452   1.412       .  A
C1452      C1458   1.411       .  A
C1452      C1453   1.410       .  A
C1453      C1455   1.412       .  A
C1453      C1454   1.411       .  A
C1454      C1462   1.401       .  A
C1455      C1464   1.403       .  A
C1455      C1456   1.404       .  A
C1456      C1457   1.398       .  A
C1456      H1467   1.084       .  S
C1457      C1458   1.403       .  A
C1457      H1468   1.084       .  S
C1458      C1459   1.400       .  A
C1459      C1460   1.406       .  A
C1459      H1469   1.084       .  S
C1460      C1461   1.404       .  A
C1461      H1470   1.084       .  S
C1462      C1463   1.406       .  A
C1462      H1471   1.084       .  S
C1463      C1464   1.408       .  A
C1464      H1472   1.084       .  S
C1473      C1474   1.401   1_455  A
C1473      C1478   1.405       .  A
C1473      H1489   1.083       .  S
C1474      C1475   1.404       .  A
C1474      H1490   1.084       .  S
C1475      C1485   1.407       .  A
C1475      C1476   1.412       .  A
C1476      C1482   1.411       .  A
C1476      C1477   1.415   1_655  A
C1477      C1479   1.411       .  A
C1477      C1478   1.411       .  A
C1478      C1486   1.407       .  A
C1479      C1488   1.405       .  A
C1479      C1480   1.404       .  A
C1480      C1481   1.399   1_455  A
C1480      H1491   1.084       .  S
C1481      C1482   1.403       .  A
C1481      H1492   1.084       .  S
C1482      C1483   1.404       .  A
C1483      C1484   1.407       .  A
C1483      H1493   1.084       .  S
C1484      C1485   1.408       .  A
C1485      H1494   1.084       .  S
C1486      C1487   1.410       .  A
C1486      H1495   1.084       .  S
C1487      C1488   1.408       .  A
C1488      H1496   1.084       .  S
C1497      C1498   1.400       .  A
C1497      C1502   1.404       .  A
C1497      H1513   1.084       .  S
C1498      C1499   1.404       .  A
C1498      H1514   1.084       .  S
C1499      C1509   1.402       .  A
C1499      C1500   1.411       .  A
C1500      C1506   1.412       .  A
C1500      C1501   1.410       .  A
C1501      C1503   1.411       .  A
C1501      C1502   1.413       .  A
C1502      C1510   1.405       .  A
C1503      C1512   1.398       .  A
C1503      C1504   1.402       .  A
C1504      C1505   1.397       .  A
C1504      H1515   1.084       .  S
C1505      C1506   1.402       .  A
C1505      H1516   1.084       .  S
C1506      C1507   1.400       .  A
C1507      C1508   1.405       .  A
C1507      H1517   1.084       .  S
C1508      C1509   1.408       .  A
C1509      H1518   1.084       .  S
C1510      C1511   1.406       .  A
C1510      H1519   1.084       .  S
C1511      C1512   1.403       .  A
C1512      H1520   1.085       .  S
C1521      C1522   1.397       .  A
C1521      C1526   1.402       .  A
C1521      H1537   1.084       .  S
C1522      C1523   1.403       .  A
C1522      H1538   1.084       .  S
C1523      C1533   1.401       .  A
C1523      C1524   1.412       .  A
C1524      C1530   1.411       .  A
C1524      C1525   1.411       .  A
C1525      C1527   1.412       .  A
C1525      C1526   1.411       .  A
C1526      C1534   1.399       .  A
C1527      C1536   1.404       .  A
C1527      C1528   1.404       .  A
C1528      C1529   1.400       .  A
C1528      H1539   1.084       .  S
C1529      C1530   1.404       .  A
C1529      H1540   1.084       .  S
C1530      C1531   1.404       .  A
C1531      C1532   1.408       .  A
C1531      H1541   1.084       .  S
C1532      C1533   1.405       .  A
C1533      H1542   1.084       .  S
C1534      C1535   1.404       .  A
C1534      H1543   1.085       .  S
C1535      C1536   1.406       .  A
C1536      H1544   1.085       .  S
C1545      C1546   1.400   1_455  A
C1545      C1550   1.404       .  A
C1545      H1561   1.084       .  S
C1546      C1547   1.404       .  A
C1546      H1562   1.084       .  S
C1547      C1557   1.405       .  A
C1547      C1548   1.411       .  A
C1548      C1554   1.411       .  A
C1548      C1549   1.413   1_655  A
C1549      C1551   1.412       .  A
C1549      C1550   1.411       .  A
C1550      C1558   1.404       .  A
C1551      C1560   1.404       .  A
C1551      C1552   1.403       .  A
C1552      C1553   1.399   1_455  A
C1552      H1563   1.084       .  S
C1553      C1554   1.403       .  A
C1553      H1564   1.084       .  S
C1554      C1555   1.403       .  A
C1555      C1556   1.407       .  A
C1555      H1565   1.084       .  S
C1556      C1557   1.409       .  A
C1557      H1566   1.084       .  S
C1558      C1559   1.408       .  A
C1558      H1567   1.084       .  S
C1559      C1560   1.406       .  A
C1560      H1568   1.084       .  S
C1569      C1570   1.398   1_565  A
C1569      C1574   1.403       .  A
C1569      H1585   1.084       .  S
C1570      C1571   1.404       .  A
C1570      H1586   1.083       .  S
C1571      C1581   1.402       .  A
C1571      C1572   1.410       .  A
C1572      C1578   1.412       .  A
C1572      C1573   1.412   1_545  A
C1573      C1575   1.411       .  A
C1573      C1574   1.412       .  A
C1574      C1582   1.403       .  A
C1575      C1584   1.403       .  A
C1575      C1576   1.404       .  A
C1576      C1577   1.400   1_565  A
C1576      H1587   1.084       .  S
C1577      C1578   1.404       .  A
C1577      H1588   1.084       .  S
C1578      C1579   1.405       .  A
C1579      C1580   1.408       .  A
C1579      H1589   1.084       .  S
C1580      C1581   1.408       .  A
C1581      H1590   1.084       .  S
C1582      C1583   1.405       .  A
C1582      H1591   1.084       .  S
C1583      C1584   1.409       .  A
C1584      H1592   1.084       .  S
C1593      C1594   1.398       .  A
C1593      C1598   1.403       .  A
C1593      H1609   1.084       .  S
C1594      C1595   1.403       .  A
C1594      H1610   1.084       .  S
C1595      C1605   1.401       .  A
C1595      C1596   1.412       .  A
C1596      C1602   1.411       .  A
C1596      C1597   1.408       .  A
C1597      C1599   1.412       .  A
C1597      C1598   1.411       .  A
C1598      C1606   1.399       .  A
C1599      C1608   1.399       .  A
C1599      C1600   1.402       .  A
C1600      C1601   1.396       .  A
C1600      H1611   1.084       .  S
C1601      C1602   1.403       .  A
C1601      H1612   1.084       .  S
C1602      C1603   1.397       .  A
C1603      C1604   1.405       .  A
C1603      H1613   1.084       .  S
C1604      C1605   1.405       .  A
C1605      H1614   1.084       .  S
C1606      C1607   1.405       .  A
C1606      H1615   1.084       .  S
C1607      C1608   1.405       .  A
C1608      H1616   1.084       .  S
C1617      C1618   1.400       .  A
C1617      C1622   1.404       .  A
C1617      H1633   1.084       .  S
C1618      C1619   1.404       .  A
C1618      H1634   1.083       .  S
C1619      C1629   1.406       .  A
C1619      C1620   1.412       .  A
C1620      C1626   1.411       .  A
C1620      C1621   1.412       .  A
C1621      C1623   1.411       .  A
C1621      C1622   1.411       .  A
C1622      C1630   1.405       .  A
C1623      C1632   1.401       .  A
C1623      C1624   1.403       .  A
C1624      C1625   1.398       .  A
C1624      H1635   1.084       .  S
C1625      C1626   1.403       .  A
C1625      H1636   1.084       .  S
C1626      C1627   1.401       .  A
C1627      C1628   1.408       .  A
C1627      H1637   1.084       .  S
C1628      C1629   1.408       .  A
C1629      H1638   1.084       .  S
C1630      C1631   1.408       .  A
C1630      H1639   1.084       .  S
C1631      C1632   1.407       .  A
C1632      H1640   1.084       .  S
C1641      C1642   1.398       .  A
C1641      C1646   1.403       .  A
C1641      H1657   1.084       .  S
C1642      C1643   1.403       .  A
C1642      H1658   1.084       .  S
C1643      C1653   1.401       .  A
C1643      C1644   1.411       .  A
C1644      C1650   1.412       .  A
C1644      C1645   1.412       .  A
C1645      C1647   1.411       .  A
C1645      C1646   1.411       .  A
C1646      C1654   1.401       .  A
C1647      C1656   1.403       .  A
C1647      C1648   1.404       .  A
C1648      C1649   1.399       .  A
C1648      H1659   1.084       .  S
C1649      C1650   1.404       .  A
C1649      H1660   1.084       .  S
C1650      C1651   1.404       .  A
C1651      C1652   1.408       .  A
C1651      H1661   1.084       .  S
C1652      C1653   1.408       .  A
C1653      H1662   1.084       .  S
C1654      C1655   1.407       .  A
C1654      H1663   1.084       .  S
C1655      C1656   1.408       .  A
C1656      H1664   1.084       .  S
C1665      C1666   1.400   1_554  A
C1665      C1670   1.404       .  A
C1665      H1681   1.084       .  S
C1666      C1667   1.404       .  A
C1666      H1682   1.084       .  S
C1667      C1677   1.403       .  A
C1667      C1668   1.411       .  A
C1668      C1674   1.411       .  A
C1668      C1669   1.412   1_556  A
C1669      C1671   1.412       .  A
C1669      C1670   1.412       .  A
C1670      C1678   1.405       .  A
C1671      C1680   1.403       .  A
C1671      C1672   1.403       .  A
C1672      C1673   1.398   1_554  A
C1672      H1683   1.084       .  S
C1673      C1674   1.403       .  A
C1673      H1684   1.084       .  S
C1674      C1675   1.402       .  A
C1675      C1676   1.407       .  A
C1675      H1685   1.084       .  S
C1676      C1677   1.408       .  A
C1677      H1686   1.084       .  S
C1678      C1679   1.407       .  A
C1678      H1687   1.084       .  S
C1679      C1680   1.406       .  A
C1680      H1688   1.084       .  S
C1689      C1690   1.401   1_556  A
C1689      C1694   1.404       .  A
C1689      H1705   1.084       .  S
C1690      C1691   1.404       .  A
C1690      H1706   1.084       .  S
C1691      C1701   1.405       .  A
C1691      C1692   1.412       .  A
C1692      C1698   1.410       .  A
C1692      C1693   1.411   1_554  A
C1693      C1695   1.411       .  A
C1693      C1694   1.411       .  A
C1694      C1702   1.405       .  A
C1695      C1704   1.400       .  A
C1695      C1696   1.403       .  A
C1696      C1697   1.396   1_556  A
C1696      H1707   1.084       .  S
C1697      C1698   1.403       .  A
C1697      H1708   1.084       .  S
C1698      C1699   1.398       .  A
C1699      C1700   1.407       .  A
C1699      H1709   1.084       .  S
C1700      C1701   1.408       .  A
C1701      H1710   1.084       .  S
C1702      C1703   1.409       .  A
C1702      H1711   1.084       .  S
C1703      C1704   1.407       .  A
C1704      H1712   1.084       .  S
C1713      C1714   1.400       .  A
C1713      C1718   1.404       .  A
C1713      H1729   1.084       .  S
C1714      C1715   1.405       .  A
C1714      H1730   1.084       .  S
C1715      C1725   1.404       .  A
C1715      C1716   1.410       .  A
C1716      C1722   1.412       .  A
C1716      C1717   1.415       .  A
C1717      C1719   1.412       .  A
C1717      C1718   1.413       .  A
C1718      C1726   1.406       .  A
C1719      C1728   1.406       .  A
C1719      C1720   1.404       .  A
C1720      C1721   1.400       .  A
C1720      H1731   1.083       .  S
C1721      C1722   1.404       .  A
C1721      H1732   1.083       .  S
C1722      C1723   1.407       .  A
C1723      C1724   1.408       .  A
C1723      H1733   1.084       .  S
C1724      C1725   1.411       .  A
C1725      H1734   1.084       .  S
C1726      C1727   1.406       .  A
C1726      H1735   1.085       .  S
C1727      C1728   1.405       .  A
C1728      H1736   1.084       .  S
C1737      C1738   1.401       .  A
C1737      C1742   1.404       .  A
C1737      H1753   1.084       .  S
C1738      C1739   1.405       .  A
C1738      H1754   1.083       .  S
C1739      C1749   1.407       .  A
C1739      C1740   1.412       .  A
C1740      C1746   1.410       .  A
C1740      C1741   1.412       .  A
C1741      C1743   1.411       .  A
C1741      C1742   1.411       .  A
C1742      C1750   1.404       .  A
C1743      C1752   1.400       .  A
C1743      C1744   1.402       .  A
C1744      C1745   1.396       .  A
C1744      H1755   1.084       .  S
C1745      C1746   1.403       .  A
C1745      H1756   1.084       .  S
C1746      C1747   1.398       .  A
C1747      C1748   1.407       .  A
C1747      H1757   1.084       .  S
C1748      C1749   1.409       .  A
C1749      H1758   1.084       .  S
C1750      C1751   1.409       .  A
C1750      H1759   1.084       .  S
C1751      C1752   1.406       .  A
C1752      H1760   1.084       .  S
C1761      C1762   1.398       .  A
C1761      C1766   1.403       .  A
C1761      H1777   1.084       .  S
C1762      C1763   1.403       .  A
C1762      H1778   1.084       .  S
C1763      C1773   1.399       .  A
C1763      C1764   1.410       .  A
C1764      C1770   1.412       .  A
C1764      C1765   1.408       .  A
C1765      C1767   1.411       .  A
C1765      C1766   1.412       .  A
C1766      C1774   1.401       .  A
C1767      C1776   1.399       .  A
C1767      C1768   1.403       .  A
C1768      C1769   1.397       .  A
C1768      H1779   1.084       .  S
C1769      C1770   1.403       .  A
C1769      H1780   1.084       .  S
C1770      C1771   1.400       .  A
C1771      C1772   1.405       .  A
C1771      H1781   1.084       .  S
C1772      C1773   1.407       .  A
C1773      H1782   1.084       .  S
C1774      C1775   1.407       .  A
C1774      H1783   1.084       .  S
C1775      C1776   1.405       .  A
C1776      H1784   1.084       .  S
C1785      C1786   1.398       .  A
C1785      C1790   1.403       .  A
C1785      H1801   1.084       .  S
C1786      C1787   1.403       .  A
C1786      H1802   1.083       .  S
C1787      C1797   1.401       .  A
C1787      C1788   1.411       .  A
C1788      C1794   1.411       .  A
C1788      C1789   1.409       .  A
C1789      C1791   1.411       .  A
C1789      C1790   1.412       .  A
C1790      C1798   1.401       .  A
C1791      C1800   1.398       .  A
C1791      C1792   1.403       .  A
C1792      C1793   1.397       .  A
C1792      H1803   1.084       .  S
C1793      C1794   1.403       .  A
C1793      H1804   1.084       .  S
C1794      C1795   1.399       .  A
C1795      C1796   1.407       .  A
C1795      H1805   1.084       .  S
C1796      C1797   1.406       .  A
C1797      H1806   1.084       .  S
C1798      C1799   1.405       .  A
C1798      H1807   1.084       .  S
C1799      C1800   1.406       .  A
C1800      H1808   1.084       .  S
C1809      C1810   1.399       .  A
C1809      C1814   1.404       .  A
C1809      H1825   1.084       .  S
C1810      C1811   1.404       .  A
C1810      H1826   1.084       .  S
C1811      C1821   1.405       .  A
C1811      C1812   1.412       .  A
C1812      C1818   1.410       .  A
C1812      C1813   1.412       .  A
C1813      C1815   1.412       .  A
C1813      C1814   1.411       .  A
C1814      C1822   1.403       .  A
C1815      C1824   1.402       .  A
C1815      C1816   1.403       .  A
C1816      C1817   1.398       .  A
C1816      H1827   1.084       .  S
C1817      C1818   1.403       .  A
C1817      H1828   1.084       .  S
C1818      C1819   1.401       .  A
C1819      C1820   1.408       .  A
C1819      H1829   1.084       .  S
C1820      C1821   1.407       .  A
C1821      H1830   1.084       .  S
C1822      C1823   1.408       .  A
C1822      H1831   1.084       .  S
C1823      C1824   1.407       .  A
C1824      H1832   1.084       .  S
C1833      C1834   1.398       .  A
C1833      C1838   1.403       .  A
C1833      H1849   1.084       .  S
C1834      C1835   1.403       .  A
C1834      H1850   1.084       .  S
C1835      C1845   1.403       .  A
C1835      C1836   1.412       .  A
C1836      C1842   1.410       .  A
C1836      C1837   1.411       .  A
C1837      C1839   1.412       .  A
C1837      C1838   1.411       .  A
C1838      C1846   1.402       .  A
C1839      C1848   1.403       .  A
C1839      C1840   1.403       .  A
C1840      C1841   1.398       .  A
C1840      H1851   1.084       .  S
C1841      C1842   1.404       .  A
C1841      H1852   1.084       .  S
C1842      C1843   1.401       .  A
C1843      C1844   1.408       .  A
C1843      H1853   1.084       .  S
C1844      C1845   1.407       .  A
C1845      H1854   1.084       .  S
C1846      C1847   1.407       .  A
C1846      H1855   1.084       .  S
C1847      C1848   1.408       .  A
C1848      H1856   1.084       .  S
C1857      C1858   1.401       .  A
C1857      C1862   1.404       .  A
C1857      H1873   1.083       .  S
C1858      C1859   1.405       .  A
C1858      H1874   1.084       .  S
C1859      C1869   1.406       .  A
C1859      C1860   1.411       .  A
C1860      C1866   1.412       .  A
C1860      C1861   1.414       .  A
C1861      C1863   1.410       .  A
C1861      C1862   1.412       .  A
C1862      C1870   1.407       .  A
C1863      C1872   1.402       .  A
C1863      C1864   1.404       .  A
C1864      C1865   1.399       .  A
C1864      H1875   1.084       .  S
C1865      C1866   1.403       .  A
C1865      H1876   1.084       .  S
C1866      C1867   1.405       .  A
C1867      C1868   1.408       .  A
C1867      H1877   1.084       .  S
C1868      C1869   1.409       .  A
C1869      H1878   1.084       .  S
C1870      C1871   1.409       .  A
C1870      H1879   1.084       .  S
C1871      C1872   1.408       .  A
C1872      H1880   1.084       .  S
C1881      C1882   1.400       .  A
C1881      C1886   1.404       .  A
C1881      H1897   1.084       .  S
C1882      C1883   1.404       .  A
C1882      H1898   1.084       .  S
C1883      C1893   1.403       .  A
C1883      C1884   1.412       .  A
C1884      C1890   1.412       .  A
C1884      C1885   1.410       .  A
C1885      C1887   1.412       .  A
C1885      C1886   1.411       .  A
C1886      C1894   1.403       .  A
C1887      C1896   1.400       .  A
C1887      C1888   1.402       .  A
C1888      C1889   1.396       .  A
C1888      H1899   1.084       .  S
C1889      C1890   1.402       .  A
C1889      H1900   1.084       .  S
C1890      C1891   1.398       .  A
C1891      C1892   1.402       .  A
C1891      H1901   1.085       .  S
C1892      C1893   1.406       .  A
C1893      H1902   1.084       .  S
C1894      C1895   1.408       .  A
C1894      H1903   1.084       .  S
C1895      C1896   1.404       .  A
C1896      H1904   1.084       .  S
C1905      C1906   1.399       .  A
C1905      C1910   1.404       .  A
C1905      H1921   1.084       .  S
C1906      C1907   1.403       .  A
C1906      H1922   1.084       .  S
C1907      C1917   1.403       .  A
C1907      C1908   1.412       .  A
C1908      C1914   1.411       .  A
C1908      C1909   1.411       .  A
C1909      C1911   1.411       .  A
C1909      C1910   1.412       .  A
C1910      C1918   1.404       .  A
C1911      C1920   1.401       .  A
C1911      C1912   1.403       .  A
C1912      C1913   1.398       .  A
C1912      H1923   1.084       .  S
C1913      C1914   1.403       .  A
C1913      H1924   1.084       .  S
C1914      C1915   1.400       .  A
C1915      C1916   1.406       .  A
C1915      H1925   1.084       .  S
C1916      C1917   1.406       .  A
C1917      H1926   1.084       .  S
C1918      C1919   1.406       .  A
C1918      H1927   1.084       .  S
C1919      C1920   1.407       .  A
C1920      H1928   1.084       .  S
C1929      C1930   1.400       .  A
C1929      C1934   1.404       .  A
C1929      H1945   1.083       .  S
C1930      C1931   1.404       .  A
C1930      H1946   1.084       .  S
C1931      C1941   1.405       .  A
C1931      C1932   1.411       .  A
C1932      C1938   1.411       .  A
C1932      C1933   1.413       .  A
C1933      C1935   1.411       .  A
C1933      C1934   1.412       .  A
C1934      C1942   1.406       .  A
C1935      C1944   1.402       .  A
C1935      C1936   1.403       .  A
C1936      C1937   1.399       .  A
C1936      H1947   1.084       .  S
C1937      C1938   1.404       .  A
C1937      H1948   1.084       .  S
C1938      C1939   1.403       .  A
C1939      C1940   1.408       .  A
C1939      H1949   1.084       .  S
C1940      C1941   1.407       .  A
C1941      H1950   1.084       .  S
C1942      C1943   1.409       .  A
C1942      H1951   1.084       .  S
C1943      C1944   1.406       .  A
C1944      H1952   1.084       .  S
C1953      C1954   1.396       .  A
C1953      C1958   1.402       .  A
C1953      H1969   1.084       .  S
C1954      C1955   1.402       .  A
C1954      H1970   1.084       .  S
C1955      C1965   1.399       .  A
C1955      C1956   1.411       .  A
C1956      C1962   1.412       .  A
C1956      C1957   1.412       .  A
C1957      C1959   1.412       .  A
C1957      C1958   1.410       .  A
C1958      C1966   1.398       .  A
C1959      C1968   1.407       .  A
C1959      C1960   1.405       .  A
C1960      C1961   1.402       .  A
C1960      H1971   1.083       .  S
C1961      C1962   1.405       .  A
C1961      H1972   1.083       .  S
C1962      C1963   1.408       .  A
C1963      C1964   1.410       .  A
C1963      H1973   1.084       .  S
C1964      C1965   1.406       .  A
C1965      H1974   1.084       .  S
C1966      C1967   1.406       .  A
C1966      H1975   1.084       .  S
C1967      C1968   1.409       .  A
C1968      H1976   1.084       .  S
C1977      C1978   1.401   1_554  A
C1977      C1982   1.405       .  A
C1977      H1993   1.083       .  S
C1978      C1979   1.404       .  A
C1978      H1994   1.084       .  S
C1979      C1989   1.407       .  A
C1979      C1980   1.412       .  A
C1980      C1986   1.411       .  A
C1980      C1981   1.415   1_556  A
C1981      C1983   1.412       .  A
C1981      C1982   1.411       .  A
C1982      C1990   1.407       .  A
C1983      C1992   1.405       .  A
C1983      C1984   1.404       .  A
C1984      C1985   1.399   1_554  A
C1984      H1995   1.084       .  S
C1985      C1986   1.403       .  A
C1985      H1996   1.084       .  S
C1986      C1987   1.404       .  A
C1987      C1988   1.407       .  A
C1987      H1997   1.084       .  S
C1988      C1989   1.409       .  A
C1989      H1998   1.084       .  S
C1990      C1991   1.410       .  A
C1990      H1999   1.084       .  S
C1991      C1992   1.408       .  A
C1992      H2000   1.084       .  S
C2001      C2002   1.399       .  A
C2001      C2006   1.403       .  A
C2001      H2017   1.084       .  S
C2002      C2003   1.403       .  A
C2002      H2018   1.083       .  S
C2003      C2013   1.403       .  A
C2003      C2004   1.412       .  A
C2004      C2010   1.411       .  A
C2004      C2005   1.411       .  A
C2005      C2007   1.412       .  A
C2005      C2006   1.412       .  A
C2006      C2014   1.402       .  A
C2007      C2016   1.402       .  A
C2007      C2008   1.403       .  A
C2008      C2009   1.399       .  A
C2008      H2019   1.084       .  S
C2009      C2010   1.404       .  A
C2009      H2020   1.084       .  S
C2010      C2011   1.402       .  A
C2011      C2012   1.407       .  A
C2011      H2021   1.084       .  S
C2012      C2013   1.406       .  A
C2013      H2022   1.084       .  S
C2014      C2015   1.406       .  A
C2014      H2023   1.085       .  S
C2015      C2016   1.405       .  A
C2016      H2024   1.084       .  S
C2025      C2026   1.400   1_545  A
C2025      C2030   1.404       .  A
C2025      H2041   1.084       .  S
C2026      C2027   1.404       .  A
C2026      H2042   1.084       .  S
C2027      C2037   1.404       .  A
C2027      C2028   1.411       .  A
C2028      C2034   1.411       .  A
C2028      C2029   1.412   1_565  A
C2029      C2031   1.412       .  A
C2029      C2030   1.412       .  A
C2030      C2038   1.404       .  A
C2031      C2040   1.402       .  A
C2031      C2032   1.402       .  A
C2032      C2033   1.398   1_545  A
C2032      H2043   1.084       .  S
C2033      C2034   1.403       .  A
C2033      H2044   1.083       .  S
C2034      C2035   1.402       .  A
C2035      C2036   1.408       .  A
C2035      H2045   1.084       .  S
C2036      C2037   1.408       .  A
C2037      H2046   1.084       .  S
C2038      C2039   1.407       .  A
C2038      H2047   1.084       .  S
C2039      C2040   1.403       .  A
C2040      H2048   1.084       .  S
C2049      C2050   1.393   1_554  A
C2049      C2054   1.401       .  A
C2049      H2065   1.084       .  S
C2050      C2051   1.402       .  A
C2050      H2066   1.084       .  S
C2051      C2061   1.393       .  A
C2051      C2052   1.410       .  A
C2052      C2058   1.412       .  A
C2052      C2053   1.408   1_556  A
C2053      C2055   1.413       .  A
C2053      C2054   1.412       .  A
C2054      C2062   1.393       .  A
C2055      C2064   1.405       .  A
C2055      C2056   1.404       .  A
C2056      C2057   1.401   1_554  A
C2056      H2067   1.083       .  S
C2057      C2058   1.405       .  A
C2057      H2068   1.083       .  S
C2058      C2059   1.406       .  A
C2059      C2060   1.408       .  A
C2059      H2069   1.084       .  S
C2060      C2061   1.405       .  A
C2061      H2070   1.084       .  S
C2062      C2063   1.400       .  A
C2062      H2071   1.085       .  S
C2063      C2064   1.405       .  A
C2064      H2072   1.084       .  S
C2073      C2074   1.401       .  A
C2073      C2078   1.405       .  A
C2073      H2089   1.084       .  S
C2074      C2075   1.405       .  A
C2074      H2090   1.084       .  S
C2075      C2085   1.408       .  A
C2075      C2076   1.412       .  A
C2076      C2082   1.411       .  A
C2076      C2077   1.417       .  A
C2077      C2079   1.412       .  A
C2077      C2078   1.411       .  A
C2078      C2086   1.406       .  A
C2079      C2088   1.408       .  A
C2079      C2080   1.404       .  A
C2080      C2081   1.401       .  A
C2080      H2091   1.083       .  S
C2081      C2082   1.404       .  A
C2081      H2092   1.083       .  S
C2082      C2083   1.406       .  A
C2083      C2084   1.410       .  A
C2083      H2093   1.084       .  S
C2084      C2085   1.410       .  A
C2085      H2094   1.084       .  S
C2086      C2087   1.411       .  A
C2086      H2095   1.084       .  S
C2087      C2088   1.408       .  A
C2088      H2096   1.084       .  S
C2097      C2098   1.401       .  A
C2097      C2102   1.405       .  A
C2097      H2113   1.083       .  S
C2098      C2099   1.404       .  A
C2098      H2114   1.084       .  S
C2099      C2109   1.407       .  A
C2099      C2100   1.412       .  A
C2100      C2106   1.410       .  A
C2100      C2101   1.411       .  A
C2101      C2103   1.412       .  A
C2101      C2102   1.411       .  A
C2102      C2110   1.405       .  A
C2103      C2112   1.399       .  A
C2103      C2104   1.402       .  A
C2104      C2105   1.396       .  A
C2104      H2115   1.084       .  S
C2105      C2106   1.403       .  A
C2105      H2116   1.084       .  S
C2106      C2107   1.398       .  A
C2107      C2108   1.407       .  A
C2107      H2117   1.084       .  S
C2108      C2109   1.408       .  A
C2109      H2118   1.084       .  S
C2110      C2111   1.409       .  A
C2110      H2119   1.084       .  S
C2111      C2112   1.406       .  A
C2112      H2120   1.084       .  S
C2121      C2122   1.397       .  A
C2121      C2126   1.402       .  A
C2121      H2137   1.084       .  S
C2122      C2123   1.403       .  A
C2122      H2138   1.084       .  S
C2123      C2133   1.398       .  A
C2123      C2124   1.409       .  A
C2124      C2130   1.413       .  A
C2124      C2125   1.412       .  A
C2125      C2127   1.410       .  A
C2125      C2126   1.412       .  A
C2126      C2134   1.401       .  A
C2127      C2136   1.404       .  A
C2127      C2128   1.404       .  A
C2128      C2129   1.401       .  A
C2128      H2139   1.084       .  S
C2129      C2130   1.404       .  A
C2129      H2140   1.083       .  S
C2130      C2131   1.407       .  A
C2131      C2132   1.408       .  A
C2131      H2141   1.084       .  S
C2132      C2133   1.408       .  A
C2133      H2142   1.084       .  S
C2134      C2135   1.407       .  A
C2134      H2143   1.084       .  S
C2135      C2136   1.409       .  A
C2136      H2144   1.084       .  S
C2145      C2146   1.398   1_565  A
C2145      C2150   1.403       .  A
C2145      H2161   1.084       .  S
C2146      C2147   1.403       .  A
C2146      H2162   1.084       .  S
C2147      C2157   1.401       .  A
C2147      C2148   1.411       .  A
C2148      C2154   1.411       .  A
C2148      C2149   1.411   1_545  A
C2149      C2151   1.411       .  A
C2149      C2150   1.412       .  A
C2150      C2158   1.401       .  A
C2151      C2160   1.402       .  A
C2151      C2152   1.403       .  A
C2152      C2153   1.399   1_565  A
C2152      H2163   1.084       .  S
C2153      C2154   1.404       .  A
C2153      H2164   1.084       .  S
C2154      C2155   1.403       .  A
C2155      C2156   1.408       .  A
C2155      H2165   1.084       .  S
C2156      C2157   1.406       .  A
C2157      H2166   1.084       .  S
C2158      C2159   1.405       .  A
C2158      H2167   1.084       .  S
C2159      C2160   1.406       .  A
C2160      H2168   1.084       .  S
C2169      C2170   1.398       .  A
C2169      C2174   1.403       .  A
C2169      H2185   1.084       .  S
C2170      C2171   1.403       .  A
C2170      H2186   1.084       .  S
C2171      C2181   1.401       .  A
C2171      C2172   1.411       .  A
C2172      C2178   1.412       .  A
C2172      C2173   1.413       .  A
C2173      C2175   1.411       .  A
C2173      C2174   1.412       .  A
C2174      C2182   1.402       .  A
C2175      C2184   1.406       .  A
C2175      C2176   1.404       .  A
C2176      C2177   1.401       .  A
C2176      H2187   1.084       .  S
C2177      C2178   1.405       .  A
C2177      H2188   1.083       .  S
C2178      C2179   1.407       .  A
C2179      C2180   1.409       .  A
C2179      H2189   1.084       .  S
C2180      C2181   1.405       .  A
C2181      H2190   1.084       .  S
C2182      C2183   1.406       .  A
C2182      H2191   1.084       .  S
C2183      C2184   1.408       .  A
C2184      H2192   1.084       .  S
C2193      C2194   1.397       .  A
C2193      C2198   1.403       .  A
C2193      H2209   1.084       .  S
C2194      C2195   1.403       .  A
C2194      H2210   1.084       .  S
C2195      C2205   1.401       .  A
C2195      C2196   1.411       .  A
C2196      C2202   1.411       .  A
C2196      C2197   1.411       .  A
C2197      C2199   1.412       .  A
C2197      C2198   1.412       .  A
C2198      C2206   1.401       .  A
C2199      C2208   1.404       .  A
C2199      C2200   1.404       .  A
C2200      C2201   1.400       .  A
C2200      H2211   1.083       .  S
C2201      C2202   1.404       .  A
C2201      H2212   1.084       .  S
C2202      C2203   1.404       .  A
C2203      C2204   1.408       .  A
C2203      H2213   1.084       .  S
C2204      C2205   1.406       .  A
C2205      H2214   1.084       .  S
C2206      C2207   1.404       .  A
C2206      H2215   1.085       .  S
C2207      C2208   1.407       .  A
C2208      H2216   1.084       .  S
C2217      C2218   1.402       .  A
C2217      C2222   1.405       .  A
C2217      H2233   1.083       .  S
C2218      C2219   1.406       .  A
C2218      H2234   1.084       .  S
C2219      C2229   1.406       .  A
C2219      C2220   1.410       .  A
C2220      C2226   1.412       .  A
C2220      C2221   1.411       .  A
C2221      C2223   1.409       .  A
C2221      C2222   1.413       .  A
C2222      C2230   1.408       .  A
C2223      C2232   1.395       .  A
C2223      C2224   1.402       .  A
C2224      C2225   1.395       .  A
C2224      H2235   1.084       .  S
C2225      C2226   1.402       .  A
C2225      H2236   1.084       .  S
C2226      C2227   1.399       .  A
C2227      C2228   1.405       .  A
C2227      H2237   1.084       .  S
C2228      C2229   1.411       .  A
C2229      H2238   1.084       .  S
C2230      C2231   1.409       .  A
C2230      H2239   1.084       .  S
C2231      C2232   1.405       .  A
C2232      H2240   1.084       .  S
C2241      C2242   1.400       .  A
C2241      C2246   1.404       .  A
C2241      H2257   1.084       .  S
C2242      C2243   1.404       .  A
C2242      H2258   1.084       .  S
C2243      C2253   1.406       .  A
C2243      C2244   1.412       .  A
C2244      C2250   1.411       .  A
C2244      C2245   1.413       .  A
C2245      C2247   1.412       .  A
C2245      C2246   1.411       .  A
C2246      C2254   1.404       .  A
C2247      C2256   1.403       .  A
C2247      C2248   1.403       .  A
C2248      C2249   1.398       .  A
C2248      H2259   1.083       .  S
C2249      C2250   1.403       .  A
C2249      H2260   1.084       .  S
C2250      C2251   1.402       .  A
C2251      C2252   1.407       .  A
C2251      H2261   1.084       .  S
C2252      C2253   1.409       .  A
C2253      H2262   1.084       .  S
C2254      C2255   1.408       .  A
C2254      H2263   1.084       .  S
C2255      C2256   1.406       .  A
C2256      H2264   1.084       .  S
C2265      C2266   1.401       .  A
C2265      C2270   1.405       .  A
C2265      H2281   1.084       .  S
C2266      C2267   1.404       .  A
C2266      H2282   1.083       .  S
C2267      C2277   1.407       .  A
C2267      C2268   1.412       .  A
C2268      C2274   1.411       .  A
C2268      C2269   1.415       .  A
C2269      C2271   1.411       .  A
C2269      C2270   1.411       .  A
C2270      C2278   1.407       .  A
C2271      C2280   1.405       .  A
C2271      C2272   1.403       .  A
C2272      C2273   1.399       .  A
C2272      H2283   1.083       .  S
C2273      C2274   1.404       .  A
C2273      H2284   1.084       .  S
C2274      C2275   1.404       .  A
C2275      C2276   1.408       .  A
C2275      H2285   1.084       .  S
C2276      C2277   1.410       .  A
C2277      H2286   1.084       .  S
C2278      C2279   1.410       .  A
C2278      H2287   1.084       .  S
C2279      C2280   1.408       .  A
C2280      H2288   1.084       .  S
C2289      C2290   1.398       .  A
C2289      C2294   1.403       .  A
C2289      H2305   1.084       .  S
C2290      C2291   1.403       .  A
C2290      H2306   1.084       .  S
C2291      C2301   1.401       .  A
C2291      C2292   1.411       .  A
C2292      C2298   1.412       .  A
C2292      C2293   1.411       .  A
C2293      C2295   1.411       .  A
C2293      C2294   1.412       .  A
C2294      C2302   1.402       .  A
C2295      C2304   1.403       .  A
C2295      C2296   1.404       .  A
C2296      C2297   1.399       .  A
C2296      H2307   1.084       .  S
C2297      C2298   1.404       .  A
C2297      H2308   1.084       .  S
C2298      C2299   1.404       .  A
C2299      C2300   1.407       .  A
C2299      H2309   1.084       .  S
C2300      C2301   1.407       .  A
C2301      H2310   1.084       .  S
C2302      C2303   1.405       .  A
C2302      H2311   1.084       .  S
C2303      C2304   1.407       .  A
C2304      H2312   1.084       .  S
C2313      C2314   1.398   1_554  A
C2313      C2318   1.403       .  A
C2313      H2329   1.084       .  S
C2314      C2315   1.403       .  A
C2314      H2330   1.084       .  S
C2315      C2325   1.402       .  A
C2315      C2316   1.411       .  A
C2316      C2322   1.412       .  A
C2316      C2317   1.413   1_556  A
C2317      C2319   1.411       .  A
C2317      C2318   1.411       .  A
C2318      C2326   1.403       .  A
C2319      C2328   1.405       .  A
C2319      C2320   1.404       .  A
C2320      C2321   1.400   1_554  A
C2320      H2331   1.084       .  S
C2321      C2322   1.404       .  A
C2321      H2332   1.083       .  S
C2322      C2323   1.405       .  A
C2323      C2324   1.408       .  A
C2323      H2333   1.084       .  S
C2324      C2325   1.408       .  A
C2325      H2334   1.084       .  S
C2326      C2327   1.408       .  A
C2326      H2335   1.084       .  S
C2327      C2328   1.409       .  A
C2328      H2336   1.084       .  S
C2337      C2338   1.398       .  A
C2337      C2342   1.403       .  A
C2337      H2353   1.084       .  S
C2338      C2339   1.403       .  A
C2338      H2354   1.084       .  S
C2339      C2349   1.401       .  A
C2339      C2340   1.411       .  A
C2340      C2346   1.411       .  A
C2340      C2341   1.411       .  A
C2341      C2343   1.412       .  A
C2341      C2342   1.410       .  A
C2342      C2350   1.400       .  A
C2343      C2352   1.403       .  A
C2343      C2344   1.403       .  A
C2344      C2345   1.399       .  A
C2344      H2355   1.084       .  S
C2345      C2346   1.404       .  A
C2345      H2356   1.084       .  S
C2346      C2347   1.403       .  A
C2347      C2348   1.408       .  A
C2347      H2357   1.084       .  S
C2348      C2349   1.407       .  A
C2349      H2358   1.084       .  S
C2350      C2351   1.409       .  A
C2350      H2359   1.084       .  S
C2351      C2352   1.406       .  A
C2352      H2360   1.084       .  S
C2361      C2362   1.398   1_455  A
C2361      C2366   1.403       .  A
C2361      H2377   1.084       .  S
C2362      C2363   1.403       .  A
C2362      H2378   1.084       .  S
C2363      C2373   1.401       .  A
C2363      C2364   1.412       .  A
C2364      C2370   1.411       .  A
C2364      C2365   1.410   1_655  A
C2365      C2367   1.411       .  A
C2365      C2366   1.411       .  A
C2366      C2374   1.401       .  A
C2367      C2376   1.401       .  A
C2367      C2368   1.403       .  A
C2368      C2369   1.398   1_455  A
C2368      H2379   1.084       .  S
C2369      C2370   1.403       .  A
C2369      H2380   1.084       .  S
C2370      C2371   1.400       .  A
C2371      C2372   1.406       .  A
C2371      H2381   1.084       .  S
C2372      C2373   1.405       .  A
C2373      H2382   1.084       .  S
C2374      C2375   1.406       .  A
C2374      H2383   1.084       .  S
C2375      C2376   1.406       .  A
C2376      H2384   1.084       .  S
C2385      C2386   1.399   1_554  A
C2385      C2390   1.403       .  A
C2385      H2401   1.083       .  S
C2386      C2387   1.403       .  A
C2386      H2402   1.084       .  S
C2387      C2397   1.403       .  A
C2387      C2388   1.412       .  A
C2388      C2394   1.411       .  A
C2388      C2389   1.412   1_556  A
C2389      C2391   1.412       .  A
C2389      C2390   1.412       .  A
C2390      C2398   1.403       .  A
C2391      C2400   1.402       .  A
C2391      C2392   1.404       .  A
C2392      C2393   1.399   1_554  A
C2392      H2403   1.084       .  S
C2393      C2394   1.404       .  A
C2393      H2404   1.084       .  S
C2394      C2395   1.402       .  A
C2395      C2396   1.408       .  A
C2395      H2405   1.084       .  S
C2396      C2397   1.406       .  A
C2397      H2406   1.084       .  S
C2398      C2399   1.405       .  A
C2398      H2407   1.084       .  S
C2399      C2400   1.406       .  A
C2400      H2408   1.084       .  S
C2409      C2410   1.399       .  A
C2409      C2414   1.403       .  A
C2409      H2425   1.084       .  S
C2410      C2411   1.404       .  A
C2410      H2426   1.084       .  S
C2411      C2421   1.401       .  A
C2411      C2412   1.411       .  A
C2412      C2418   1.412       .  A
C2412      C2413   1.411       .  A
C2413      C2415   1.411       .  A
C2413      C2414   1.413       .  A
C2414      C2422   1.404       .  A
C2415      C2424   1.401       .  A
C2415      C2416   1.403       .  A
C2416      C2417   1.398       .  A
C2416      H2427   1.084       .  S
C2417      C2418   1.403       .  A
C2417      H2428   1.084       .  S
C2418      C2419   1.402       .  A
C2419      C2420   1.405       .  A
C2419      H2429   1.084       .  S
C2420      C2421   1.406       .  A
C2421      H2430   1.084       .  S
C2422      C2423   1.405       .  A
C2422      H2431   1.084       .  S
C2423      C2424   1.406       .  A
C2424      H2432   1.085       .  S
C2433      C2434   1.397       .  A
C2433      C2438   1.403       .  A
C2433      H2449   1.084       .  S
C2434      C2435   1.403       .  A
C2434      H2450   1.084       .  S
C2435      C2445   1.399       .  A
C2435      C2436   1.411       .  A
C2436      C2442   1.411       .  A
C2436      C2437   1.411       .  A
C2437      C2439   1.412       .  A
C2437      C2438   1.411       .  A
C2438      C2446   1.399       .  A
C2439      C2448   1.404       .  A
C2439      C2440   1.404       .  A
C2440      C2441   1.400       .  A
C2440      H2451   1.084       .  S
C2441      C2442   1.404       .  A
C2441      H2452   1.084       .  S
C2442      C2443   1.404       .  A
C2443      C2444   1.408       .  A
C2443      H2453   1.084       .  S
C2444      C2445   1.407       .  A
C2445      H2454   1.084       .  S
C2446      C2447   1.407       .  A
C2446      H2455   1.084       .  S
C2447      C2448   1.408       .  A
C2448      H2456   1.084       .  S
C2457      C2458   1.398       .  A
C2457      C2462   1.403       .  A
C2457      H2473   1.084       .  S
C2458      C2459   1.403       .  A
C2458      H2474   1.084       .  S
C2459      C2469   1.403       .  A
C2459      C2460   1.412       .  A
C2460      C2466   1.410       .  A
C2460      C2461   1.411       .  A
C2461      C2463   1.412       .  A
C2461      C2462   1.410       .  A
C2462      C2470   1.400       .  A
C2463      C2472   1.404       .  A
C2463      C2464   1.404       .  A
C2464      C2465   1.399       .  A
C2464      H2475   1.084       .  S
C2465      C2466   1.404       .  A
C2465      H2476   1.084       .  S
C2466      C2467   1.401       .  A
C2467      C2468   1.409       .  A
C2467      H2477   1.084       .  S
C2468      C2469   1.406       .  A
C2469      H2478   1.084       .  S
C2470      C2471   1.406       .  A
C2470      H2479   1.084       .  S
C2471      C2472   1.409       .  A
C2472      H2480   1.084       .  S
C2481      C2482   1.400   1_655  A
C2481      C2486   1.404       .  A
C2481      H2497   1.083       .  S
C2482      C2483   1.404       .  A
C2482      H2498   1.084       .  S
C2483      C2493   1.404       .  A
C2483      C2484   1.412       .  A
C2484      C2490   1.412       .  A
C2484      C2485   1.414   1_455  A
C2485      C2487   1.411       .  A
C2485      C2486   1.411       .  A
C2486      C2494   1.405       .  A
C2487      C2496   1.405       .  A
C2487      C2488   1.404       .  A
C2488      C2489   1.400   1_655  A
C2488      H2499   1.084       .  S
C2489      C2490   1.404       .  A
C2489      H2500   1.083       .  S
C2490      C2491   1.405       .  A
C2491      C2492   1.407       .  A
C2491      H2501   1.084       .  S
C2492      C2493   1.407       .  A
C2493      H2502   1.084       .  S
C2494      C2495   1.408       .  A
C2494      H2503   1.084       .  S
C2495      C2496   1.409       .  A
C2496      H2504   1.084       .  S
C2505      C2506   1.400       .  A
C2505      C2510   1.404       .  A
C2505      H2521   1.084       .  S
C2506      C2507   1.404       .  A
C2506      H2522   1.084       .  S
C2507      C2517   1.403       .  A
C2507      C2508   1.410       .  A
C2508      C2514   1.413       .  A
C2508      C2509   1.411       .  A
C2509      C2511   1.410       .  A
C2509      C2510   1.413       .  A
C2510      C2518   1.405       .  A
C2511      C2520   1.399       .  A
C2511      C2512   1.403       .  A
C2512      C2513   1.398       .  A
C2512      H2523   1.084       .  S
C2513      C2514   1.403       .  A
C2513      H2524   1.084       .  S
C2514      C2515   1.403       .  A
C2515      C2516   1.405       .  A
C2515      H2525   1.084       .  S
C2516      C2517   1.408       .  A
C2517      H2526   1.084       .  S
C2518      C2519   1.406       .  A
C2518      H2527   1.084       .  S
C2519      C2520   1.405       .  A
C2520      H2528   1.085       .  S
C2529      C2530   1.398       .  A
C2529      C2534   1.403       .  A
C2529      H2545   1.084       .  S
C2530      C2531   1.403       .  A
C2530      H2546   1.084       .  S
C2531      C2541   1.402       .  A
C2531      C2532   1.411       .  A
C2532      C2538   1.411       .  A
C2532      C2533   1.412       .  A
C2533      C2535   1.412       .  A
C2533      C2534   1.411       .  A
C2534      C2542   1.401       .  A
C2535      C2544   1.404       .  A
C2535      C2536   1.404       .  A
C2536      C2537   1.400       .  A
C2536      H2547   1.084       .  S
C2537      C2538   1.404       .  A
C2537      H2548   1.084       .  S
C2538      C2539   1.404       .  A
C2539      C2540   1.409       .  A
C2539      H2549   1.084       .  S
C2540      C2541   1.407       .  A
C2541      H2550   1.084       .  S
C2542      C2543   1.407       .  A
C2542      H2551   1.084       .  S
C2543      C2544   1.408       .  A
C2544      H2552   1.084       .  S
C2553      C2554   1.398       .  A
C2553      C2558   1.404       .  A
C2553      H2569   1.084       .  S
C2554      C2555   1.403       .  A
C2554      H2570   1.084       .  S
C2555      C2565   1.403       .  A
C2555      C2556   1.413       .  A
C2556      C2562   1.410       .  A
C2556      C2557   1.408       .  A
C2557      C2559   1.413       .  A
C2557      C2558   1.410       .  A
C2558      C2566   1.399       .  A
C2559      C2568   1.400       .  A
C2559      C2560   1.402       .  A
C2560      C2561   1.396       .  A
C2560      H2571   1.084       .  S
C2561      C2562   1.403       .  A
C2561      H2572   1.084       .  S
C2562      C2563   1.396       .  A
C2563      C2564   1.405       .  A
C2563      H2573   1.085       .  S
C2564      C2565   1.405       .  A
C2565      H2574   1.084       .  S
C2566      C2567   1.406       .  A
C2566      H2575   1.085       .  S
C2567      C2568   1.402       .  A
C2568      H2576   1.085       .  S
C2577      C2578   1.404       .  A
C2577      C2582   1.406       .  A
C2577      H2593   1.083       .  S
C2578      C2579   1.405       .  A
C2578      H2594   1.083       .  S
C2579      C2589   1.412       .  A
C2579      C2580   1.412       .  A
C2580      C2586   1.410       .  A
C2580      C2581   1.416       .  A
C2581      C2583   1.411       .  A
C2581      C2582   1.411       .  A
C2582      C2590   1.411       .  A
C2583      C2592   1.402       .  A
C2583      C2584   1.403       .  A
C2584      C2585   1.398       .  A
C2584      H2595   1.084       .  S
C2585      C2586   1.404       .  A
C2585      H2596   1.084       .  S
C2586      C2587   1.403       .  A
C2587      C2588   1.410       .  A
C2587      H2597   1.084       .  S
C2588      C2589   1.411       .  A
C2589      H2598   1.084       .  S
C2590      C2591   1.412       .  A
C2590      H2599   1.084       .  S
C2591      C2592   1.407       .  A
C2592      H2600   1.084       .  S
C2601      C2602   1.396       .  A
C2601      C2606   1.402       .  A
C2601      H2617   1.084       .  S
C2602      C2603   1.402       .  A
C2602      H2618   1.083       .  S
C2603      C2613   1.400       .  A
C2603      C2604   1.412       .  A
C2604      C2610   1.409       .  A
C2604      C2605   1.408       .  A
C2605      C2607   1.411       .  A
C2605      C2606   1.411       .  A
C2606      C2614   1.398       .  A
C2607      C2616   1.399       .  A
C2607      C2608   1.403       .  A
C2608      C2609   1.397       .  A
C2608      H2619   1.084       .  S
C2609      C2610   1.404       .  A
C2609      H2620   1.084       .  S
C2610      C2611   1.398       .  A
C2611      C2612   1.409       .  A
C2611      H2621   1.084       .  S
C2612      C2613   1.403       .  A
C2613      H2622   1.084       .  S
C2614      C2615   1.404       .  A
C2614      H2623   1.084       .  S
C2615      C2616   1.408       .  A
C2616      H2624   1.084       .  S
C2625      C2626   1.398       .  A
C2625      C2630   1.403       .  A
C2625      H2641   1.084       .  S
C2626      C2627   1.403       .  A
C2626      H2642   1.084       .  S
C2627      C2637   1.400       .  A
C2627      C2628   1.409       .  A
C2628      C2634   1.413       .  A
C2628      C2629   1.415       .  A
C2629      C2631   1.411       .  A
C2629      C2630   1.412       .  A
C2630      C2638   1.403       .  A
C2631      C2640   1.408       .  A
C2631      C2632   1.405       .  A
C2632      C2633   1.402       .  A
C2632      H2643   1.083       .  S
C2633      C2634   1.405       .  A
C2633      H2644   1.083       .  S
C2634      C2635   1.411       .  A
C2635      C2636   1.409       .  A
C2635      H2645   1.084       .  S
C2636      C2637   1.409       .  A
C2637      H2646   1.084       .  S
C2638      C2639   1.409       .  A
C2638      H2647   1.084       .  S
C2639      C2640   1.409       .  A
C2640      H2648   1.084       .  S
C2649      C2650   1.395       .  A
C2649      C2654   1.402       .  A
C2649      H2665   1.084       .  S
C2650      C2651   1.402       .  A
C2650      H2666   1.084       .  S
C2651      C2661   1.397       .  A
C2651      C2652   1.410       .  A
C2652      C2658   1.412       .  A
C2652      C2653   1.411       .  A
C2653      C2655   1.411       .  A
C2653      C2654   1.411       .  A
C2654      C2662   1.398       .  A
C2655      C2664   1.407       .  A
C2655      C2656   1.405       .  A
C2656      C2657   1.402       .  A
C2656      H2667   1.084       .  S
C2657      C2658   1.405       .  A
C2657      H2668   1.083       .  S
C2658      C2659   1.407       .  A
C2659      C2660   1.409       .  A
C2659      H2669   1.084       .  S
C2660      C2661   1.406       .  A
C2661      H2670   1.084       .  S
C2662      C2663   1.406       .  A
C2662      H2671   1.084       .  S
C2663      C2664   1.409       .  A
C2664      H2672   1.084       .  S
C2673      C2674   1.397   1_455  A
C2673      C2678   1.403       .  A
C2673      H2689   1.084       .  S
C2674      C2675   1.403       .  A
C2674      H2690   1.084       .  S
C2675      C2685   1.401       .  A
C2675      C2676   1.411       .  A
C2676      C2682   1.412       .  A
C2676      C2677   1.414   1_655  A
C2677      C2679   1.412       .  A
C2677      C2678   1.410       .  A
C2678      C2686   1.400       .  A
C2679      C2688   1.409       .  A
C2679      C2680   1.405       .  A
C2680      C2681   1.402   1_455  A
C2680      H2691   1.083       .  S
C2681      C2682   1.405       .  A
C2681      H2692   1.083       .  S
C2682      C2683   1.408       .  A
C2683      C2684   1.410       .  A
C2683      H2693   1.084       .  S
C2684      C2685   1.409       .  A
C2685      H2694   1.084       .  S
C2686      C2687   1.408       .  A
C2686      H2695   1.084       .  S
C2687      C2688   1.410       .  A
C2688      H2696   1.084       .  S
C2697      C2698   1.400   1_554  A
C2697      C2702   1.404       .  A
C2697      H2713   1.084       .  S
C2698      C2699   1.404       .  A
C2698      H2714   1.084       .  S
C2699      C2709   1.404       .  A
C2699      C2700   1.411       .  A
C2700      C2706   1.411       .  A
C2700      C2701   1.412   1_556  A
C2701      C2703   1.411       .  A
C2701      C2702   1.411       .  A
C2702      C2710   1.404       .  A
C2703      C2712   1.401       .  A
C2703      C2704   1.403       .  A
C2704      C2705   1.398   1_554  A
C2704      H2715   1.084       .  S
C2705      C2706   1.403       .  A
C2705      H2716   1.084       .  S
C2706      C2707   1.401       .  A
C2707      C2708   1.407       .  A
C2707      H2717   1.084       .  S
C2708      C2709   1.408       .  A
C2709      H2718   1.084       .  S
C2710      C2711   1.409       .  A
C2710      H2719   1.084       .  S
C2711      C2712   1.407       .  A
C2712      H2720   1.084       .  S
C2721      C2722   1.401       .  A
C2721      C2726   1.405       .  A
C2721      H2737   1.084       .  S
C2722      C2723   1.404       .  A
C2722      H2738   1.084       .  S
C2723      C2733   1.406       .  A
C2723      C2724   1.413       .  A
C2724      C2730   1.410       .  A
C2724      C2725   1.412       .  A
C2725      C2727   1.413       .  A
C2725      C2726   1.410       .  A
C2726      C2734   1.404       .  A
C2727      C2736   1.403       .  A
C2727      C2728   1.402       .  A
C2728      C2729   1.397       .  A
C2728      H2739   1.083       .  S
C2729      C2730   1.403       .  A
C2729      H2740   1.084       .  S
C2730      C2731   1.399       .  A
C2731      C2732   1.405       .  A
C2731      H2741   1.084       .  S
C2732      C2733   1.407       .  A
C2733      H2742   1.084       .  S
C2734      C2735   1.409       .  A
C2734      H2743   1.084       .  S
C2735      C2736   1.404       .  A
C2736      H2744   1.084       .  S
C2745      C2746   1.400       .  A
C2745      C2750   1.404       .  A
C2745      H2761   1.084       .  S
C2746      C2747   1.404       .  A
C2746      H2762   1.084       .  S
C2747      C2757   1.407       .  A
C2747      C2748   1.413       .  A
C2748      C2754   1.410       .  A
C2748      C2749   1.413       .  A
C2749      C2751   1.412       .  A
C2749      C2750   1.410       .  A
C2750      C2758   1.403       .  A
C2751      C2760   1.403       .  A
C2751      C2752   1.403       .  A
C2752      C2753   1.398       .  A
C2752      H2763   1.084       .  S
C2753      C2754   1.403       .  A
C2753      H2764   1.083       .  S
C2754      C2755   1.402       .  A
C2755      C2756   1.407       .  A
C2755      H2765   1.084       .  S
C2756      C2757   1.408       .  A
C2757      H2766   1.084       .  S
C2758      C2759   1.409       .  A
C2758      H2767   1.084       .  S
C2759      C2760   1.406       .  A
C2760      H2768   1.084       .  S
C2769      C2770   1.398   1_545  A
C2769      C2774   1.403       .  A
C2769      H2785   1.084       .  S
C2770      C2771   1.403       .  A
C2770      H2786   1.084       .  S
C2771      C2781   1.401       .  A
C2771      C2772   1.411       .  A
C2772      C2778   1.412       .  A
C2772      C2773   1.411   1_565  A
C2773      C2775   1.411       .  A
C2773      C2774   1.412       .  A
C2774      C2782   1.402       .  A
C2775      C2784   1.402       .  A
C2775      C2776   1.404       .  A
C2776      C2777   1.399   1_545  A
C2776      H2787   1.084       .  S
C2777      C2778   1.404       .  A
C2777      H2788   1.084       .  S
C2778      C2779   1.404       .  A
C2779      C2780   1.407       .  A
C2779      H2789   1.084       .  S
C2780      C2781   1.406       .  A
C2781      H2790   1.084       .  S
C2782      C2783   1.406       .  A
C2782      H2791   1.084       .  S
C2783      C2784   1.407       .  A
C2784      H2792   1.084       .  S
C2793      C2794   1.396   1_554  A
C2793      C2798   1.403       .  A
C2793      H2809   1.084       .  S
C2794      C2795   1.402       .  A
C2794      H2810   1.084       .  S
C2795      C2805   1.400       .  A
C2795      C2796   1.411       .  A
C2796      C2802   1.411       .  A
C2796      C2797   1.412   1_556  A
C2797      C2799   1.412       .  A
C2797      C2798   1.410       .  A
C2798      C2806   1.399       .  A
C2799      C2808   1.407       .  A
C2799      C2800   1.405       .  A
C2800      C2801   1.401   1_554  A
C2800      H2811   1.083       .  S
C2801      C2802   1.404       .  A
C2801      H2812   1.084       .  S
C2802      C2803   1.406       .  A
C2803      C2804   1.409       .  A
C2803      H2813   1.084       .  S
C2804      C2805   1.407       .  A
C2805      H2814   1.084       .  S
C2806      C2807   1.407       .  A
C2806      H2815   1.084       .  S
C2807      C2808   1.409       .  A
C2808      H2816   1.084       .  S
C2817      C2818   1.397       .  A
C2817      C2822   1.403       .  A
C2817      H2833   1.084       .  S
C2818      C2819   1.403       .  A
C2818      H2834   1.084       .  S
C2819      C2829   1.399       .  A
C2819      C2820   1.411       .  A
C2820      C2826   1.414       .  A
C2820      C2821   1.410       .  A
C2821      C2823   1.410       .  A
C2821      C2822   1.413       .  A
C2822      C2830   1.402       .  A
C2823      C2832   1.400       .  A
C2823      C2824   1.404       .  A
C2824      C2825   1.399       .  A
C2824      H2835   1.084       .  S
C2825      C2826   1.403       .  A
C2825      H2836   1.084       .  S
C2826      C2827   1.404       .  A
C2827      C2828   1.404       .  A
C2827      H2837   1.084       .  S
C2828      C2829   1.403       .  A
C2829      H2838   1.085       .  S
C2830      C2831   1.405       .  A
C2830      H2839   1.084       .  S
C2831      C2832   1.409       .  A
C2832      H2840   1.084       .  S
C2841      C2842   1.402       .  A
C2841      C2846   1.405       .  A
C2841      H2857   1.083       .  S
C2842      C2843   1.405       .  A
C2842      H2858   1.084       .  S
C2843      C2853   1.408       .  A
C2843      C2844   1.412       .  A
C2844      C2850   1.411       .  A
C2844      C2845   1.415       .  A
C2845      C2847   1.411       .  A
C2845      C2846   1.412       .  A
C2846      C2854   1.408       .  A
C2847      C2856   1.405       .  A
C2847      C2848   1.404       .  A
C2848      C2849   1.399       .  A
C2848      H2859   1.084       .  S
C2849      C2850   1.404       .  A
C2849      H2860   1.084       .  S
C2850      C2851   1.404       .  A
C2851      C2852   1.408       .  A
C2851      H2861   1.084       .  S
C2852      C2853   1.409       .  A
C2853      H2862   1.084       .  S
C2854      C2855   1.409       .  A
C2854      H2863   1.084       .  S
C2855      C2856   1.408       .  A
C2856      H2864   1.084       .  S
C2865      C2866   1.399       .  A
C2865      C2870   1.403       .  A
C2865      H2881   1.084       .  S
C2866      C2867   1.403       .  A
C2866      H2882   1.084       .  S
C2867      C2877   1.403       .  A
C2867      C2868   1.412       .  A
C2868      C2874   1.411       .  A
C2868      C2869   1.411       .  A
C2869      C2871   1.411       .  A
C2869      C2870   1.411       .  A
C2870      C2878   1.403       .  A
C2871      C2880   1.402       .  A
C2871      C2872   1.403       .  A
C2872      C2873   1.399       .  A
C2872      H2883   1.084       .  S
C2873      C2874   1.404       .  A
C2873      H2884   1.084       .  S
C2874      C2875   1.402       .  A
C2875      C2876   1.407       .  A
C2875      H2885   1.084       .  S
C2876      C2877   1.405       .  A
C2877      H2886   1.084       .  S
C2878      C2879   1.407       .  A
C2878      H2887   1.084       .  S
C2879      C2880   1.407       .  A
C2880      H2888   1.084       .  S
C2889      C2890   1.401   1_455  A
C2889      C2894   1.404       .  A
C2889      H2905   1.084       .  S
C2890      C2891   1.405       .  A
C2890      H2906   1.083       .  S
C2891      C2901   1.408       .  A
C2891      C2892   1.412       .  A
C2892      C2898   1.410       .  A
C2892      C2893   1.413   1_655  A
C2893      C2895   1.411       .  A
C2893      C2894   1.411       .  A
C2894      C2902   1.405       .  A
C2895      C2904   1.401       .  A
C2895      C2896   1.403       .  A
C2896      C2897   1.398   1_455  A
C2896      H2907   1.084       .  S
C2897      C2898   1.403       .  A
C2897      H2908   1.084       .  S
C2898      C2899   1.401       .  A
C2899      C2900   1.409       .  A
C2899      H2909   1.084       .  S
C2900      C2901   1.409       .  A
C2901      H2910   1.084       .  S
C2902      C2903   1.408       .  A
C2902      H2911   1.084       .  S
C2903      C2904   1.408       .  A
C2904      H2912   1.084       .  S
C2913      C2914   1.398   1_545  A
C2913      C2918   1.403       .  A
C2913      H2929   1.084       .  S
C2914      C2915   1.403       .  A
C2914      H2930   1.083       .  S
C2915      C2925   1.403       .  A
C2915      C2916   1.412       .  A
C2916      C2922   1.410       .  A
C2916      C2917   1.411   1_565  A
C2917      C2919   1.412       .  A
C2917      C2918   1.411       .  A
C2918      C2926   1.401       .  A
C2919      C2928   1.403       .  A
C2919      C2920   1.404       .  A
C2920      C2921   1.399   1_545  A
C2920      H2931   1.084       .  S
C2921      C2922   1.404       .  A
C2921      H2932   1.084       .  S
C2922      C2923   1.402       .  A
C2923      C2924   1.409       .  A
C2923      H2933   1.084       .  S
C2924      C2925   1.406       .  A
C2925      H2934   1.084       .  S
C2926      C2927   1.406       .  A
C2926      H2935   1.084       .  S
C2927      C2928   1.408       .  A
C2928      H2936   1.084       .  S
C2937      C2938   1.399       .  A
C2937      C2942   1.403       .  A
C2937      H2953   1.084       .  S
C2938      C2939   1.404       .  A
C2938      H2954   1.083       .  S
C2939      C2949   1.403       .  A
C2939      C2940   1.411       .  A
C2940      C2946   1.412       .  A
C2940      C2941   1.412       .  A
C2941      C2943   1.411       .  A
C2941      C2942   1.413       .  A
C2942      C2950   1.404       .  A
C2943      C2952   1.402       .  A
C2943      C2944   1.404       .  A
C2944      C2945   1.399       .  A
C2944      H2955   1.084       .  S
C2945      C2946   1.404       .  A
C2945      H2956   1.084       .  S
C2946      C2947   1.403       .  A
C2947      C2948   1.408       .  A
C2947      H2957   1.084       .  S
C2948      C2949   1.408       .  A
C2949      H2958   1.084       .  S
C2950      C2951   1.403       .  A
C2950      H2959   1.084       .  S
C2951      C2952   1.406       .  A
C2952      H2960   1.085       .  S
C2961      C2962   1.399       .  A
C2961      C2966   1.404       .  A
C2961      H2977   1.084       .  S
C2962      C2963   1.404       .  A
C2962      H2978   1.084       .  S
C2963      C2973   1.403       .  A
C2963      C2964   1.411       .  A
C2964      C2970   1.412       .  A
C2964      C2965   1.413       .  A
C2965      C2967   1.412       .  A
C2965      C2966   1.412       .  A
C2966      C2974   1.403       .  A
C2967      C2976   1.404       .  A
C2967      C2968   1.403       .  A
C2968      C2969   1.400       .  A
C2968      H2979   1.083       .  S
C2969      C2970   1.404       .  A
C2969      H2980   1.084       .  S
C2970      C2971   1.405       .  A
C2971      C2972   1.408       .  A
C2971      H2981   1.084       .  S
C2972      C2973   1.409       .  A
C2973      H2982   1.084       .  S
C2974      C2975   1.406       .  A
C2974      H2983   1.085       .  S
C2975      C2976   1.405       .  A
C2976      H2984   1.084       .  S
C2985      C2986   1.399       .  A
C2985      C2990   1.403       .  A
C2985      H3001   1.084       .  S
C2986      C2987   1.403       .  A
C2986      H3002   1.084       .  S
C2987      C2997   1.402       .  A
C2987      C2988   1.412       .  A
C2988      C2994   1.412       .  A
C2988      C2989   1.411       .  A
C2989      C2991   1.411       .  A
C2989      C2990   1.412       .  A
C2990      C2998   1.403       .  A
C2991      C3000   1.402       .  A
C2991      C2992   1.404       .  A
C2992      C2993   1.398       .  A
C2992      H3003   1.084       .  S
C2993      C2994   1.403       .  A
C2993      H3004   1.084       .  S
C2994      C2995   1.402       .  A
C2995      C2996   1.405       .  A
C2995      H3005   1.085       .  S
C2996      C2997   1.404       .  A
C2997      H3006   1.084       .  S
C2998      C2999   1.407       .  A
C2998      H3007   1.084       .  S
C2999      C3000   1.408       .  A
C3000      H3008   1.084       .  S
