geometry optimzed in LAMMPS
_audit_creation_date              2020-11-30 
_audit_creation_method            'lammps2cif' 
_symmetry_space_group_name_H-M    'P1' 
_symmetry_Int_Tables_number       1 
_symmetry_cell_setting            triclinic 
loop_ 
_symmetry_equiv_pos_as_xyz 
  x,y,z 
_cell_length_a                    35.30368485 
_cell_length_b                    34.53688542019661 
_cell_length_c                    34.40685108763427 
_cell_angle_alpha                 89.77940868180498 
_cell_angle_beta                  88.52801553836916 
_cell_angle_gamma                 88.58049562835684 
loop_ 
_atom_site_label 
_atom_site_type_symbol 
_atom_site_fract_x 
_atom_site_fract_y 
_atom_site_fract_z 
_atom_site_charge 
O1          O  0.97999754  0.47982383  0.91406355    -0.78300
C2          C  0.01090060  0.38744011  0.99640113     0.82700
O3          O  0.91587510  0.51532627  0.03085374    -0.79400
O4          O  0.03308047  0.47341598  0.08738354    -0.80900
O5          O  0.09472455  0.52358794  0.97433690    -0.80700
O6          O  0.02350082  0.52565856  0.91189944    -0.79300
Zn7        Zn  0.97390034  0.46393803  0.96949347     1.55700
O8          O  0.09605364  0.47420867  0.01597478    -0.80700
Cd9        Cd  0.03688315  0.53328378  0.96836674     1.59700
Cd10       Cd  0.97224862  0.52948490  0.03500942     1.59600
O11         O  0.02444639  0.59105938  0.98023602    -0.80700
O12         O  0.00535640  0.49691500  0.00000269    -1.91200
Cd13       Cd  0.04043195  0.46271381  0.02947269     1.59900
O14         O  0.97644928  0.58814231  0.02310322    -0.80700
O15         O  0.03258212  0.40450823  0.01949271    -0.79300
C16         C  0.89938751  0.49189808  0.00869933     0.83200
C17         C  0.99996646  0.50422985  0.89537991     0.82900
O18         O  0.98802707  0.40666066  0.97512437    -0.78300
C19         C  0.11301591  0.49881139  0.99455762     0.83700
O20         O  0.91819959  0.47085872  0.98430465    -0.78400
C21         C  0.99902351  0.60765658  0.00168985     0.83800
C22         C  0.01279780  0.49780659  0.10678974     0.84100
O23         O  0.98907198  0.52092923  0.09094849    -0.80800
O24         O  0.02150563  0.58919537  0.52022109    -0.78300
C25         C  0.98873717  0.50641389  0.60739388     0.82700
O26         O  0.08807871  0.46851224  0.48732700    -0.79400
O27         O  0.97135774  0.40875971  0.52856904    -0.80900
O28         O  0.90856449  0.52589504  0.47603174    -0.80700
O29         O  0.97632698  0.59093910  0.47659059    -0.79300
Zn30       Zn  0.02884764  0.53244425  0.53302651     1.55700
O31         O  0.90549413  0.47865700  0.52013728    -0.80700
Cd32       Cd  0.96658952  0.53300342  0.46808645     1.59700
Cd33       Cd  0.03175848  0.46202599  0.47370793     1.59600
O34         O  0.98318892  0.52082685  0.41201454    -0.80700
O35         O  0.99753863  0.49918482  0.50268359    -1.91200
Cd36       Cd  0.96138509  0.46781928  0.53431861     1.59900
O37         O  0.02750712  0.47364037  0.41565323    -0.80700
O38         O  0.96696751  0.48289982  0.59109874    -0.79300
C39         C  0.10411799  0.49375282  0.50773698     0.83200
C40         C  0.99946226  0.60812390  0.49797692     0.82900
O41         O  0.01321564  0.52584799  0.58837647    -0.78300
C42         C  0.88949903  0.50284791  0.49742480     0.83700
O43         O  0.08490616  0.51976085  0.52620966    -0.78400
C44         C  0.00757817  0.49764043  0.39617182     0.83800
C45         C  0.99406849  0.38877817  0.50683812     0.84100
O46         O  0.01803019  0.40483105  0.48400538    -0.80800
O47         O  0.53076848  0.58453338  0.02283539    -0.78300
C48         C  0.49900834  0.49347848  0.10397209     0.82700
O49         O  0.59812811  0.47015943  0.97736895    -0.79400
O50         O  0.48269441  0.40432158  0.01748276    -0.80900
O51         O  0.41679300  0.52356552  0.97365226    -0.80700
O52         O  0.48545510  0.58945104  0.97930992    -0.79300
Zn53       Zn  0.53801070  0.52671859  0.03202148     1.55700
O54         O  0.41575290  0.47345632  0.01427070    -0.80700
Cd55       Cd  0.47485106  0.53240598  0.96703701     1.59700
Cd56       Cd  0.54133466  0.46234137  0.96594025     1.59600
O57         O  0.48917741  0.52357704  0.91001471    -0.80700
O58         O  0.50693789  0.49643281  0.99851328    -1.91200
Cd59       Cd  0.47145120  0.46245402  0.02763138     1.59900
O60         O  0.53231811  0.47495872  0.90883574    -0.80700
O61         O  0.47646180  0.47253224  0.08554388    -0.79300
C62         C  0.61368733  0.49148352  0.00222889     0.83200
C63         C  0.50898097  0.60502847  0.00155674     0.82900
O64         O  0.52346260  0.51463445  0.08700279    -0.78300
C65         C  0.39862076  0.49834171  0.99323208     0.83700
O66         O  0.59386190  0.51368566  0.02466359    -0.78400
C67         C  0.51135772  0.49992388  0.89181945     0.83800
C68         C  0.50672969  0.38627468  0.99554652     0.84100
O69         O  0.53061277  0.40425879  0.97426603    -0.80800
O70         O  0.51698135  0.59116402  0.51841416    -0.78300
C71         C  0.50065758  0.50100338  0.60390837     0.82700
O72         O  0.58856470  0.47681301  0.47629512    -0.79400
O73         O  0.47771245  0.40806349  0.52168358    -0.80900
O74         O  0.40477081  0.52483435  0.48415316    -0.80700
O75         O  0.47003408  0.59356621  0.47678297    -0.79300
Zn76       Zn  0.52878387  0.53516799  0.52812520     1.55700
O77         O  0.40852987  0.47510429  0.52547405    -0.80700
Cd78       Cd  0.46115827  0.53467737  0.46909369     1.59700
Cd79       Cd  0.53170724  0.46768480  0.46667881     1.59600
O80         O  0.46997334  0.52103527  0.41147745    -0.80700
O81         O  0.49714309  0.50131336  0.49932566    -1.91200
Cd82       Cd  0.46620645  0.46601622  0.53252161     1.59900
O83         O  0.52040644  0.48016564  0.41006767    -0.80700
O84         O  0.47947412  0.47608286  0.58894469    -0.79300
C85         C  0.60429694  0.50221428  0.49672090     0.83200
C86         C  0.49366665  0.61045930  0.49795276     0.82900
O87         O  0.51954606  0.52514821  0.58388879    -0.78300
C88         C  0.38915505  0.49956809  0.50593934     0.83700
O89         O  0.58478241  0.52662888  0.51690474    -0.78400
C90         C  0.49484835  0.50022561  0.39320244     0.83800
C91         C  0.50105911  0.39056932  0.49860891     0.84100
O92         O  0.52318904  0.40915772  0.47587515    -0.80800
N93         N  0.98228289  0.95824112  0.04503736    -0.36400
N94         N  0.98558051  0.95567546  0.95832529    -0.57000
N95         N  0.98688140  0.03852608  0.95556321    -0.36400
N96         N  0.98961136  0.04064359  0.04222419    -0.57000
C97         C  0.99047034  0.92028480  0.03847585     0.27200
C98         C  0.98944357  0.96547505  0.08293275     0.27200
C99         C  0.99404014  0.03007232  0.91746404     0.27200
C100        C  0.99912782  0.07476599  0.96184127     0.27200
C101        C  0.97787149  0.91842350  0.96704838     0.35800
C102        C  0.97817663  0.96071649  0.92007782     0.35800
C103        C  0.98138833  0.03682554  0.08080831     0.35800
C104        C  0.98570069  0.07878162  0.03371548     0.35800
C105        C  0.00288548  0.90325466  0.07267938    -0.21700
C106        C  0.00191661  0.93163839  0.10070986    -0.21700
C107        C  0.01079014  0.06140464  0.89933463    -0.21700
C108        C  0.01422218  0.08944405  0.92728641    -0.21700
C109        C  0.96537663  0.89983719  0.93422621    -0.22700
C110        C  0.96551443  0.92658749  0.90457908    -0.22700
C111        C  0.97215877  0.07262364  0.09680688    -0.22700
C112        C  0.97478784  0.09914703  0.06704925    -0.22700
C113        C  0.98468122  0.90000750  0.00327705    -0.18100
C114        C  0.98421185  0.00165519  0.10205252    -0.18100
C115        C  0.99470196  0.09596692  0.99713120    -0.18100
C116        C  0.98516531  0.99506210  0.89855382    -0.18100
H117        H  0.01157269  0.87334121  0.07717258     0.14800
H118        H  0.00987142  0.92784811  0.13068198     0.14800
H119        H  0.01995089  0.06373468  0.86917446     0.14800
H120        H  0.02633289  0.11759930  0.92253425     0.14800
H121        H  0.95717262  0.86997550  0.93178802     0.13100
H122        H  0.95746395  0.92135907  0.87495872     0.13100
H123        H  0.96450997  0.07901845  0.12680021     0.13100
H124        H  0.96947882  0.13002186  0.06977541     0.13100
H125        H  0.96891752  0.97699227  0.02573424     0.26400
H126        H  0.97103405  0.02225785  0.97526693     0.26400
N127        N  0.99019023  0.95589058  0.54216527    -0.36400
N128        N  0.98504104  0.03892403  0.54471537    -0.57000
N129        N  0.98971327  0.04127344  0.45789766    -0.36400
N130        N  0.98868432  0.95813958  0.45566879    -0.57000
C131        C  0.98181779  0.96114740  0.58061757     0.27200
C132        C  0.98365245  0.91845506  0.53372719     0.27200
C133        C  0.98093339  0.07865874  0.46662652     0.27200
C134        C  0.98252225  0.03603543  0.41964863     0.27200
C135        C  0.99176306  0.03188335  0.58280367     0.35800
C136        C  0.99218005  0.07675381  0.53836971     0.35800
C137        C  0.99593918  0.91993779  0.46148564     0.35800
C138        C  0.99446252  0.96491450  0.41710906     0.35800
C139        C  0.96980538  0.92654521  0.59666552    -0.21700
C140        C  0.97109088  0.89963674  0.56720081    -0.21700
C141        C  0.96830099  0.09747054  0.43346743    -0.21700
C142        C  0.96939006  0.07066163  0.40390627    -0.21700
C143        C  0.00311855  0.06537703  0.60063506    -0.22700
C144        C  0.00341515  0.09372549  0.57257624    -0.22700
C145        C  0.00621679  0.90239499  0.42641377    -0.22700
C146        C  0.00515550  0.93081570  0.39836432    -0.22700
C147        C  0.98660547  0.99584583  0.60190286    -0.18100
C148        C  0.99111955  0.90003548  0.49739288    -0.18100
C149        C  0.98841589  0.00112625  0.39833987    -0.18100
C150        C  0.98638771  0.09697670  0.50293187    -0.18100
H151        H  0.96120740  0.92110364  0.62656388     0.14800
H152        H  0.96380154  0.86949229  0.57017842     0.14800
H153        H  0.95935992  0.12753629  0.43073350     0.14800
H154        H  0.96134197  0.07609354  0.37420210     0.14800
H155        H  0.01072482  0.06902426  0.63064106     0.13100
H156        H  0.01110746  0.12350226  0.57694159     0.13100
H157        H  0.01341829  0.87214846  0.42142671     0.13100
H158        H  0.01151366  0.92681299  0.36768160     0.13100
H159        H  0.00374099  0.97523068  0.52362672     0.26400
H160        H  0.00350162  0.02184629  0.47617330     0.26400
N161        N  0.50568691  0.95393006  0.95905102    -0.36400
N162        N  0.50594194  0.03709013  0.95778299    -0.57000
N163        N  0.50393655  0.03803416  0.04410219    -0.36400
N164        N  0.50849916  0.95478205  0.04546986    -0.57000
C165        C  0.51246092  0.96004082  0.92043578     0.27200
C166        C  0.51462093  0.91639134  0.96677629     0.27200
C167        C  0.51175967  0.07536717  0.03587774     0.27200
C168        C  0.51148065  0.03185279  0.08216586     0.27200
C169        C  0.50004362  0.03113320  0.91948532     0.35800
C170        C  0.49972887  0.07533088  0.96427300     0.35800
C171        C  0.50330181  0.91665494  0.03925991     0.35800
C172        C  0.50158282  0.96104346  0.08395486     0.35800
C173        C  0.52534307  0.92577104  0.90336764    -0.21700
C174        C  0.52690013  0.89834510  0.93252506    -0.21700
C175        C  0.52426150  0.09314528  0.06918573    -0.21700
C176        C  0.52387705  0.06576723  0.09838128    -0.21700
C177        C  0.49020326  0.06576242  0.90156528    -0.22700
C178        C  0.48983334  0.09369773  0.92989991    -0.22700
C179        C  0.49317743  0.89867569  0.07404947    -0.22700
C180        C  0.49222277  0.92674227  0.10230701    -0.22700
C181        C  0.50605335  0.99535835  0.89998793    -0.18100
C182        C  0.50972877  0.89725758  0.00324349    -0.18100
C183        C  0.50575566  0.99691781  0.10302485    -0.18100
C184        C  0.50578465  0.09455169  0.99988730    -0.18100
H185        H  0.53283874  0.92097579  0.87303941     0.14800
H186        H  0.53581698  0.86835644  0.92877632     0.14800
H187        H  0.53251223  0.12292460  0.07229110     0.14800
H188        H  0.53180782  0.07033733  0.12816307     0.14800
H189        H  0.48431177  0.07049291  0.87117564     0.13100
H190        H  0.48352571  0.12420380  0.92551365     0.13100
H191        H  0.48724697  0.86839380  0.07870214     0.13100
H192        H  0.48559693  0.92236173  0.13287413     0.13100
H193        H  0.49198731  0.97295083  0.97838863     0.26400
H194        H  0.49024859  0.01930748  0.02585715     0.26400
N195        N  0.50700891  0.04176730  0.45774322    -0.36400
N196        N  0.50073691  0.95908156  0.45757304    -0.57000
N197        N  0.50449836  0.95870084  0.54451131    -0.36400
N198        N  0.50631153  0.04152344  0.54487171    -0.57000
C199        C  0.50074266  0.03632928  0.41930739     0.27200
C200        C  0.50183479  0.07998000  0.46528055     0.27200
C201        C  0.49565944  0.92151270  0.53750203     0.27200
C202        C  0.49970124  0.96498249  0.58340866     0.27200
C203        C  0.50550417  0.96427276  0.41861340     0.35800
C204        C  0.50320480  0.92049392  0.46425788     0.35800
C205        C  0.51199171  0.07950219  0.53772435     0.35800
C206        C  0.51219518  0.03559950  0.58333046     0.35800
C207        C  0.49237209  0.07177689  0.40214828    -0.21700
C208        C  0.49270242  0.09913965  0.43106481    -0.21700
C209        C  0.48547215  0.90381444  0.57241037    -0.21700
C210        C  0.48832640  0.93098797  0.60124368    -0.21700
C211        C  0.51023888  0.92872864  0.40043705    -0.22700
C212        C  0.50907689  0.90111261  0.42923379    -0.22700
C213        C  0.52124446  0.09782997  0.57191093    -0.22700
C214        C  0.52119074  0.07017848  0.60069898    -0.22700
C215        C  0.50360987  0.00050856  0.39900680    -0.18100
C216        C  0.50708751  0.09867390  0.50149072    -0.18100
C217        C  0.50696679  0.99999579  0.60340938    -0.18100
C218        C  0.49880035  0.90205704  0.50109520    -0.18100
H219        H  0.48662265  0.07755649  0.37191980     0.14800
H220        H  0.48717728  0.12984630  0.42711318     0.14800
H221        H  0.47724688  0.87410801  0.57683793     0.14800
H222        H  0.48286836  0.92590081  0.63187991     0.14800
H223        H  0.51400583  0.92313559  0.36964215     0.13100
H224        H  0.51208132  0.87019104  0.42471315     0.13100
H225        H  0.52711498  0.12814823  0.57587230     0.13100
H226        H  0.52665503  0.07526507  0.63101839     0.13100
H227        H  0.51789235  0.02154236  0.47705250     0.26400
H228        H  0.51710162  0.97701886  0.52435515     0.26400
C229        C  0.50760072  0.99540117  0.85620238    -0.01100
C230        C  0.54152601  0.00298335  0.83581916    -0.09100
C231        C  0.54309884  0.00424118  0.79493816    -0.17900
C232        C  0.51044837  0.99818619  0.77278850     0.04400
C233        C  0.47596508  0.99104323  0.79371294     0.18600
C234        C  0.47491315  0.98947759  0.83484689    -0.19400
C235        C  0.44259910  0.98569951  0.77344567    -0.20600
C236        C  0.44256375  0.98722289  0.73295176    -0.19200
C237        C  0.47598454  0.99366328  0.71131194     0.20000
C238        C  0.51054597  0.99903448  0.73081687     0.02100
C239        C  0.54355097  0.00464579  0.70731067    -0.13900
C240        C  0.54223255  0.00465381  0.66646461    -0.11600
C241        C  0.50805045  0.99963489  0.64734367     0.01700
C242        C  0.47497289  0.99449288  0.67021140    -0.23800
H243        H  0.56700482  0.00808637  0.85171775     0.09700
H244        H  0.57020174  0.01033045  0.78143975     0.13200
H245        H  0.44846677  0.98405743  0.85040684     0.12000
H246        H  0.41618147  0.98039521  0.78907667     0.13200
H247        H  0.41612105  0.98302649  0.71839778     0.12200
H248        H  0.57089777  0.00870336  0.71970617     0.09300
H249        H  0.56816035  0.00871340  0.64958398     0.12500
H250        H  0.44834951  0.99073840  0.65582719     0.14400
C251        C  0.50451920  0.99805074  0.14669497    -0.01100
C252        C  0.47074786  0.00808984  0.16686014    -0.09100
C253        C  0.46905668  0.00924979  0.20767756    -0.17900
C254        C  0.50144766  0.00060609  0.22994858     0.04400
C255        C  0.53585835  0.99110736  0.20923238     0.18600
C256        C  0.53701255  0.98963413  0.16813077    -0.19400
C257        C  0.56898180  0.98319931  0.22968383    -0.20600
C258        C  0.56879514  0.98434357  0.27018891    -0.19200
C259        C  0.53537622  0.99296059  0.29160418     0.20000
C260        C  0.50110041  0.00106655  0.27186396     0.02100
C261        C  0.46804383  0.00884418  0.29507081    -0.13900
C262        C  0.46904752  0.00851227  0.33587336    -0.11600
C263        C  0.50294206  0.00090062  0.35518924     0.01700
C264        C  0.53604002  0.99322160  0.33270809    -0.23800
H265        H  0.44541861  0.01496116  0.15084504     0.09700
H266        H  0.44203800  0.01722520  0.22099985     0.13200
H267        H  0.56331564  0.98216262  0.15267114     0.12000
H268        H  0.59535273  0.97611906  0.21419894     0.13200
H269        H  0.59503101  0.97811442  0.28492189     0.12200
H270        H  0.44087610  0.01490383  0.28250319     0.09300
H271        H  0.44311042  0.01430008  0.35257063     0.12500
H272        H  0.56235084  0.98711419  0.34737771     0.14400
C273        C  0.98553592  0.99381802  0.85462524    -0.01100
C274        C  0.00979356  0.96781955  0.83417538    -0.09100
C275        C  0.01072424  0.96664542  0.79336265    -0.17900
C276        C  0.98735368  0.99173881  0.77115378     0.04400
C277        C  0.96243647  0.01778586  0.79191987     0.18600
C278        C  0.96190494  0.01874456  0.83306329    -0.19400
C279        C  0.93810641  0.04271082  0.77146567    -0.20600
C280        C  0.93781433  0.04231949  0.73094068    -0.19200
C281        C  0.96224256  0.01739795  0.70950865     0.20000
C282        C  0.98766852  0.99196317  0.72923979     0.02100
C283        C  0.01248348  0.96825345  0.70604552    -0.13900
C284        C  0.01191358  0.96964433  0.66526232    -0.11600
C285        C  0.98646124  0.99432084  0.64583234     0.01700
C286        C  0.96156695  0.01803518  0.66840924    -0.23800
H287        H  0.02837853  0.94831710  0.84997305     0.09700
H288        H  0.02998824  0.94566580  0.77999265     0.13200
H289        H  0.94288065  0.03884799  0.84847122     0.12000
H290        H  0.91897286  0.06261764  0.78696343     0.13200
H291        H  0.91845887  0.06193175  0.71621354     0.12200
H292        H  0.03302711  0.94864007  0.71860563     0.09300
H293        H  0.03174569  0.95139965  0.64867554     0.12500
H294        H  0.94177103  0.03731084  0.65382696     0.14400
C295        C  0.98299080  0.00262884  0.14594642    -0.01100
C296        C  0.95398621  0.98429558  0.16706597    -0.09100
C297        C  0.95285388  0.98427046  0.20793913    -0.17900
C298        C  0.98113004  0.00242222  0.22946333     0.04400
C299        C  0.01041287  0.02119232  0.20793848     0.18600
C300        C  0.01101199  0.02124344  0.16677263    -0.19400
C301        C  0.03918120  0.03953992  0.22764916    -0.20600
C302        C  0.03979215  0.03946917  0.26816814    -0.19200
C303        C  0.01165798  0.02103835  0.29036085     0.20000
C304        C  0.98176537  0.00234246  0.27138914     0.02100
C305        C  0.95415381  0.98412477  0.29531979    -0.13900
C306        C  0.95649589  0.98398069  0.33602565    -0.11600
C307        C  0.98613133  0.00214364  0.35460808     0.01700
C308        C  0.01346848  0.02093820  0.33144176    -0.23800
H309        H  0.93197555  0.96984110  0.15174104     0.09700
H310        H  0.92960161  0.96956348  0.22190647     0.13200
H311        H  0.03365397  0.03540002  0.15077785     0.12000
H312        H  0.06159450  0.05393396  0.21155931     0.13200
H313        H  0.06265974  0.05380929  0.28227921     0.12200
H314        H  0.93048965  0.96951566  0.28338746     0.09300
H315        H  0.93493276  0.96951421  0.35324020     0.12500
H316        H  0.03648369  0.03511459  0.34550006     0.14400
C317        C  0.50272389  0.34762009  0.49843919    -0.01100
C318        C  0.53272485  0.32768983  0.47927243    -0.09100
C319        C  0.53490995  0.28728492  0.47938151    -0.17900
C320        C  0.50680586  0.26521629  0.49856882     0.04400
C321        C  0.47614861  0.28552981  0.51761276     0.18600
C322        C  0.47454454  0.32624090  0.51763983    -0.19400
C323        C  0.44715338  0.26511359  0.53637667    -0.20600
C324        C  0.44781225  0.22484407  0.53652891    -0.19200
C325        C  0.47770867  0.20397263  0.51831448     0.20000
C326        C  0.50784928  0.22381027  0.49931716     0.02100
C327        C  0.53772749  0.20128172  0.48198191    -0.13900
C328        C  0.53739940  0.16090936  0.48309729    -0.11600
C329        C  0.50740763  0.14170094  0.50131330     0.01700
C330        C  0.47766556  0.16329096  0.51896314    -0.23800
H331        H  0.55492489  0.34340510  0.46427413     0.09700
H332        H  0.55886642  0.27426374  0.46394462     0.13200
H333        H  0.45104349  0.34129341  0.53240814     0.12000
H334        H  0.42365887  0.28041172  0.55087088     0.13200
H335        H  0.42481313  0.20990976  0.55111322     0.12200
H336        H  0.56184754  0.21390083  0.46746706     0.09300
H337        H  0.56064201  0.14445737  0.46951159     0.12500
H338        H  0.45447163  0.14825673  0.53313669     0.14400
C339        C  0.49450383  0.65333924  0.49919582    -0.01100
C340        C  0.52450382  0.67152038  0.51711494    -0.09100
C341        C  0.52601173  0.71175608  0.51879307    -0.17900
C342        C  0.49729410  0.73551815  0.50258365     0.04400
C343        C  0.46663354  0.71703968  0.48479295     0.18600
C344        C  0.46557044  0.67636994  0.48313552    -0.19400
C345        C  0.43727658  0.73926453  0.46863808    -0.20600
C346        C  0.43787395  0.77950716  0.46934811    -0.19200
C347        C  0.46788006  0.79855870  0.48615872     0.20000
C348        C  0.49801467  0.77687284  0.50317184     0.02100
C349        C  0.52770678  0.79757828  0.51970098    -0.13900
C350        C  0.52766195  0.83794724  0.51885245    -0.11600
C351        C  0.49805969  0.85901875  0.50189156     0.01700
C352        C  0.46807386  0.83924984  0.48584701    -0.23800
H353        H  0.54727037  0.65454634  0.52982072     0.09700
H354        H  0.55010937  0.72326149  0.53297700     0.13200
H355        H  0.44205512  0.66265994  0.46947413     0.12000
H356        H  0.41373634  0.72541657  0.45518875     0.13200
H357        H  0.41479630  0.79586022  0.45641354     0.12200
H358        H  0.55154000  0.78353559  0.53326423     0.09300
H359        H  0.55096933  0.85293984  0.53144956     0.12500
H360        H  0.44506122  0.85569661  0.47285947     0.14400
C361        C  0.50715790  0.13753069  0.99919637    -0.01100
C362        C  0.53630161  0.15590958  0.97862324    -0.09100
C363        C  0.53747931  0.19624306  0.97706833    -0.17900
C364        C  0.50933463  0.21955481  0.99629230     0.04400
C365        C  0.48033028  0.20056282  0.01797690     0.18600
C366        C  0.47939432  0.15993519  0.01904625    -0.19400
C367        C  0.45244223  0.22221318  0.03846635    -0.20600
C368        C  0.45269418  0.26244449  0.03798655    -0.19200
C369        C  0.48051220  0.28203675  0.01653560     0.20000
C370        C  0.50901950  0.26093542  0.99501443     0.02100
C371        C  0.53574607  0.28222438  0.97294312    -0.13900
C372        C  0.53466249  0.32265262  0.97295367    -0.11600
C373        C  0.50706164  0.34334173  0.99493727     0.01700
C374        C  0.47991446  0.32271589  0.01647983    -0.23800
H375        H  0.55821485  0.13884176  0.96355526     0.09700
H376        H  0.56089969  0.20822852  0.96079537     0.13200
H377        H  0.45698873  0.14557451  0.03523185     0.12000
H378        H  0.43035807  0.20791975  0.05514649     0.13200
H379        H  0.43082260  0.27836444  0.05436058     0.12200
H380        H  0.55773799  0.26854611  0.95515807     0.09300
H381        H  0.55579651  0.33775339  0.95575056     0.12500
H382        H  0.45814910  0.33832400  0.03331918     0.14400
C383        C  0.51089043  0.64790861  0.00241892    -0.01100
C384        C  0.53946027  0.66636336  0.02238282    -0.09100
C385        C  0.54109229  0.70680897  0.02308443    -0.17900
C386        C  0.51390933  0.73026553  0.00384826     0.04400
C387        C  0.48528432  0.71129954  0.98331912     0.18600
C388        C  0.48406320  0.67073274  0.98279614    -0.19400
C389        C  0.45784479  0.73286741  0.96341698    -0.20600
C390        C  0.45795811  0.77304549  0.96357751    -0.19200
C391        C  0.48541902  0.79270394  0.98377176     0.20000
C392        C  0.51389306  0.77173054  0.00422414     0.02100
C393        C  0.54081766  0.79328194  0.02426649    -0.13900
C394        C  0.53946845  0.83379946  0.02381656    -0.11600
C395        C  0.51130039  0.85408849  0.00360593     0.01700
C396        C  0.48437972  0.83335381  0.98371047    -0.23800
H397        H  0.56079671  0.64948336  0.03748367     0.10900
H398        H  0.56394001  0.71882016  0.03892973     0.13200
H399        H  0.46185036  0.65690737  0.96712755     0.12000
H400        H  0.43603585  0.71853819  0.94763620     0.13200
H401        H  0.43625996  0.78888203  0.94790628     0.12200
H402        H  0.56317502  0.77971201  0.04059627     0.09300
H403        H  0.56051156  0.84947527  0.03936283     0.12500
H404        H  0.46247037  0.84909220  0.96820007     0.14400
C405        C  0.51232797  0.50132941  0.84951450    -0.01100
C406        C  0.50447555  0.53625067  0.83046414    -0.09100
C407        C  0.50407941  0.53774247  0.79021752    -0.17900
C408        C  0.51099645  0.50393956  0.76791520     0.04400
C409        C  0.51789415  0.46831698  0.78762484     0.18600
C410        C  0.51937319  0.46750226  0.82812162    -0.19400
C411        C  0.52223031  0.43366268  0.76690056    -0.20600
C412        C  0.51875732  0.43351199  0.72683868    -0.19200
C413        C  0.51237777  0.46820736  0.70670976     0.20000
C414        C  0.50995413  0.50409110  0.72682319     0.02100
C415        C  0.50669791  0.53865810  0.70493646    -0.13900
C416        C  0.50393150  0.53742124  0.66485401    -0.11600
C417        C  0.50386685  0.50189676  0.64577097     0.01700
C418        C  0.50844063  0.46738303  0.66647957    -0.23800
H419        H  0.49861321  0.56258548  0.84679575     0.09700
H420        H  0.49704320  0.56550845  0.77760823     0.13200
H421        H  0.52459137  0.44026753  0.84310677     0.12000
H422        H  0.52733257  0.40642339  0.78185817     0.13200
H423        H  0.52122436  0.40617178  0.71150117     0.12200
H424        H  0.50687802  0.56705844  0.71774915     0.09300
H425        H  0.50128240  0.56432172  0.64870744     0.12500
H426        H  0.50965547  0.43998791  0.65110468     0.14400
C427        C  0.49711430  0.49283629  0.14630928    -0.01100
C428        C  0.46239425  0.48852969  0.16602550    -0.09100
C429        C  0.46051902  0.48874074  0.20643236    -0.17900
C430        C  0.49367430  0.49272739  0.22809363     0.04400
C431        C  0.52907896  0.49459791  0.20763665     0.18600
C432        C  0.53036396  0.49556966  0.16708914    -0.19400
C433        C  0.56296865  0.49534538  0.22771472    -0.20600
C434        C  0.56244048  0.49464718  0.26799912    -0.19200
C435        C  0.52795087  0.49488772  0.28889719     0.20000
C436        C  0.49300792  0.49472733  0.26927643     0.02100
C437        C  0.45892678  0.49782214  0.29165966    -0.13900
C438        C  0.45964321  0.50034995  0.33194970    -0.11600
C439        C  0.49413779  0.49900448  0.35090761     0.01700
C440        C  0.52816127  0.49607542  0.32941407    -0.23800
H441        H  0.43652729  0.48563695  0.15011203     0.09700
H442        H  0.43289738  0.48509135  0.21980780     0.13200
H443        H  0.55738911  0.49771260  0.15158364     0.12000
H444        H  0.59003452  0.49619268  0.21216639     0.13200
H445        H  0.58911623  0.49491702  0.28289830     0.12200
H446        H  0.43137445  0.49939606  0.27890348     0.09300
H447        H  0.43311074  0.50275724  0.34840865     0.12500
H448        H  0.55489950  0.49573031  0.34429257     0.14400
C449        C  0.99236322  0.34586946  0.50784529    -0.01100
C450        C  0.96578278  0.32727349  0.53195841    -0.09100
C451        C  0.96350631  0.28692201  0.53229340    -0.17900
C452        C  0.98792262  0.26362946  0.50836545     0.04400
C453        C  0.01522229  0.28261496  0.48444685     0.18600
C454        C  0.01708515  0.32317975  0.48430033    -0.19400
C455        C  0.04059367  0.26105015  0.46072081    -0.20600
C456        C  0.03962964  0.22088483  0.46027939    -0.19200
C457        C  0.01295512  0.20127629  0.48317573     0.20000
C458        C  0.98641864  0.22228287  0.50732854     0.02100
C459        C  0.95946788  0.20092192  0.52909964    -0.13900
C460        C  0.95923794  0.16052449  0.52718023    -0.11600
C461        C  0.98596152  0.14010974  0.50393098     0.01700
C462        C  0.01268714  0.16066466  0.48197705    -0.23800
H463        H  0.94642593  0.34397685  0.55062826     0.09700
H464        H  0.94242375  0.27486834  0.55169562     0.13200
H465        H  0.03791769  0.33709774  0.46562718     0.12000
H466        H  0.06148399  0.27536057  0.44245934     0.13200
H467        H  0.05981078  0.20503460  0.44172429     0.12200
H468        H  0.93805926  0.21454529  0.54766142     0.09300
H469        H  0.93820425  0.14501030  0.54413574     0.12500
H470        H  0.03337509  0.14483857  0.46394605     0.14400
C471        C  0.99380001  0.85700737  0.49711297    -0.01100
C472        C  0.02451163  0.83782503  0.51419448    -0.09100
C473        C  0.02731899  0.79741657  0.51446016    -0.17900
C474        C  0.99914198  0.77484183  0.49763419     0.04400
C475        C  0.96798781  0.79469063  0.48031616     0.18600
C476        C  0.96563217  0.83536339  0.48019409    -0.19400
C477        C  0.93926819  0.77385764  0.46334932    -0.20600
C478        C  0.94066966  0.73363075  0.46321558    -0.19200
C479        C  0.97079354  0.71320176  0.48010135     0.20000
C480        C  0.00054175  0.73340063  0.49754983     0.02100
C481        C  0.03014487  0.71115619  0.51435470    -0.13900
C482        C  0.02982097  0.67069155  0.51430384    -0.11600
C483        C  0.00030017  0.65099756  0.49723141     0.01700
C484        C  0.97106856  0.67255775  0.47989444    -0.23800
H485        H  0.04647903  0.85431658  0.52738611     0.09700
H486        H  0.05181273  0.78477947  0.52812687     0.13200
H487        H  0.94177617  0.85034980  0.46709631     0.12000
H488        H  0.91547119  0.78879496  0.45014242     0.13200
H489        H  0.91790055  0.71836491  0.44992430     0.12200
H490        H  0.05383659  0.72410595  0.52799556     0.09300
H491        H  0.05288972  0.65475796  0.52769540     0.12500
H492        H  0.94799025  0.65767491  0.46669164     0.14400
C493        C  0.84767815  0.50414307  0.49619010    -0.01100
C494        C  0.82778389  0.53951246  0.49282741    -0.09100
C495        C  0.78812571  0.54087782  0.49333720    -0.17900
C496        C  0.76709503  0.50655348  0.49632039     0.04400
C497        C  0.78762752  0.47066308  0.49813183     0.18600
C498        C  0.82740716  0.46986150  0.49896199    -0.19400
C499        C  0.76838224  0.43571899  0.49877396    -0.20600
C500        C  0.72907450  0.43554271  0.49732909    -0.19200
C501        C  0.70792789  0.47033366  0.49655033     0.20000
C502        C  0.72654557  0.50640289  0.49699144     0.02100
C503        C  0.70370129  0.54063583  0.49867010    -0.13900
C504        C  0.66415806  0.53903670  0.49915824    -0.11600
C505        C  0.64610540  0.50349932  0.49703603     0.01700
C506        C  0.66816730  0.46924184  0.49569519    -0.23800
H507        H  0.84298077  0.56633418  0.49057281     0.09700
H508        H  0.77475746  0.56912618  0.49069137     0.13200
H509        H  0.84275154  0.44235733  0.50099299     0.12000
H510        H  0.78388762  0.40827034  0.49987337     0.13200
H511        H  0.71507789  0.40796339  0.49731677     0.12200
H512        H  0.71554322  0.56902541  0.50033684     0.09300
H513        H  0.64757021  0.56583480  0.50055152     0.12500
H514        H  0.65427399  0.44160453  0.49487710     0.14400
C515        C  0.14601960  0.49322000  0.50941835    -0.01100
C516        C  0.16698091  0.45889536  0.50240679    -0.09100
C517        C  0.20654955  0.45832119  0.50294154    -0.17900
C518        C  0.22663553  0.49248834  0.50977751     0.04400
C519        C  0.20524668  0.52745490  0.51593332     0.18600
C520        C  0.16539321  0.52735891  0.51650606    -0.19400
C521        C  0.22376145  0.56244651  0.52070941    -0.20600
C522        C  0.26313482  0.56363023  0.51871997    -0.19200
C523        C  0.28504021  0.52965611  0.51322743     0.20000
C524        C  0.26712089  0.49340732  0.50983019     0.02100
C525        C  0.29054565  0.45965712  0.50694564    -0.13900
C526        C  0.32998738  0.46195654  0.50649233    -0.11600
C527        C  0.34741661  0.49782994  0.50797335     0.01700
C528        C  0.32482869  0.53163689  0.51130743    -0.23800
H529        H  0.15268219  0.43221444  0.49658949     0.09700
H530        H  0.22060958  0.43087072  0.49693510     0.13200
H531        H  0.14941920  0.55422560  0.52124877     0.12000
H532        H  0.20764962  0.58923837  0.52527166     0.13200
H533        H  0.27655998  0.59129817  0.52179532     0.12200
H534        H  0.27926336  0.43100507  0.50560816     0.09300
H535        H  0.34703739  0.43550444  0.50417554     0.12500
H536        H  0.33830018  0.55942978  0.51318124     0.14400
C537        C  0.00006758  0.13873141  0.99580360    -0.01100
C538        C  0.02686389  0.15589263  0.01915809    -0.09100
C539        C  0.03092487  0.19604969  0.01931961    -0.17900
C540        C  0.00851044  0.22047199  0.99549526     0.04400
C541        C  0.98228026  0.20268301  0.97087775     0.18600
C542        C  0.97803502  0.16233994  0.97157073    -0.19400
C543        C  0.96016484  0.22527039  0.94589106    -0.20600
C544        C  0.96291876  0.26533253  0.94527706    -0.19200
C545        C  0.98754404  0.28390860  0.96995490     0.20000
C546        C  0.01087980  0.26181507  0.99532677     0.02100
C547        C  0.03500752  0.28219057  0.01981333    -0.13900
C548        C  0.03536495  0.32267311  0.01956002    -0.11600
C549        C  0.01185657  0.34437372  0.99491970     0.01700
C550        C  0.98839593  0.32459734  0.96981770    -0.23800
H551        H  0.04448450  0.13805227  0.03774306     0.09700
H552        H  0.05187702  0.20704563  0.03834194     0.13200
H553        H  0.95732399  0.14915515  0.95336807     0.12000
H554        H  0.94039934  0.21185808  0.92680147     0.13200
H555        H  0.94519356  0.28197321  0.92573717     0.12200
H556        H  0.05352815  0.26773733  0.03994109     0.09300
H557        H  0.05386755  0.33703565  0.03925211     0.12500
H558        H  0.97013911  0.34091479  0.95051019     0.14400
C559        C  0.99570345  0.65063168  0.00200410    -0.01100
C560        C  0.96865042  0.66946181  0.02626980    -0.09100
C561        C  0.96575536  0.70982553  0.02756656    -0.17900
C562        C  0.98994961  0.73302606  0.00442254     0.04400
C563        C  0.01697768  0.71386709  0.97934615     0.18600
C564        C  0.01963724  0.67316893  0.97839894    -0.19400
C565        C  0.04127323  0.73542641  0.95539307    -0.20600
C566        C  0.03948616  0.77568317  0.95591422    -0.19200
C567        C  0.01344091  0.79542494  0.98048376     0.20000
C568        C  0.98825424  0.77445446  0.00514399     0.02100
C569        C  0.96250042  0.79593469  0.02938917    -0.13900
C570        C  0.96142792  0.83637907  0.02862082    -0.11600
C571        C  0.98625586  0.85679984  0.00424491     0.01700
C572        C  0.01238745  0.83611705  0.98045627    -0.23800
H573        H  0.94961038  0.65292368  0.04466479     0.09700
H574        H  0.94425756  0.72192139  0.04703732     0.13200
H575        H  0.04055764  0.65905556  0.95927591     0.12000
H576        H  0.06184804  0.72104142  0.93610279     0.13200
H577        H  0.05867351  0.79150527  0.93697593     0.12200
H578        H  0.94268560  0.78241361  0.04916267     0.09300
H579        H  0.94102063  0.85190584  0.04716979     0.12500
H580        H  0.03179284  0.85189981  0.96168737     0.14400
C581        C  0.85737800  0.48986967  0.01076577    -0.01100
C582        C  0.83625071  0.51280297  0.03740841    -0.09100
C583        C  0.79667842  0.51301906  0.03808440    -0.17900
C584        C  0.77662147  0.49022605  0.01186211     0.04400
C585        C  0.79811216  0.46615467  0.98559854     0.18600
C586        C  0.83797994  0.46618117  0.98527224    -0.19400
C587        C  0.77969333  0.44250355  0.95947670    -0.20600
C588        C  0.74032745  0.44250527  0.95854302    -0.19200
C589        C  0.71832540  0.46641357  0.98346567     0.20000
C590        C  0.73611493  0.49063474  0.01052488     0.02100
C591        C  0.71254860  0.51458385  0.03464172    -0.13900
C592        C  0.67314984  0.51454854  0.03189767    -0.11600
C593        C  0.65565644  0.49070202  0.00515869     0.01700
C594        C  0.67857220  0.46651440  0.98116230    -0.23800
H595        H  0.85034503  0.53116604  0.05768021     0.09700
H596        H  0.78266791  0.53153446  0.05938156     0.13200
H597        H  0.85389598  0.44811107  0.96462105     0.12000
H598        H  0.79586504  0.42396722  0.93946822     0.13200
H599        H  0.72699259  0.42393476  0.93786652     0.12200
H600        H  0.72363765  0.53399857  0.05571431     0.09300
H601        H  0.65631040  0.53357570  0.05081937     0.12500
H602        H  0.66550150  0.44789107  0.96033326     0.14400
C603        C  0.35661454  0.49752682  0.99213047    -0.01100
C604        C  0.33724291  0.46939468  0.01370619    -0.09100
C605        C  0.29786963  0.46829061  0.01422989    -0.17900
C606        C  0.27605893  0.49555349  0.99311029     0.04400
C607        C  0.29562333  0.52362565  0.97049096     0.18600
C608        C  0.33553736  0.52443275  0.97022523    -0.19400
C609        C  0.27518606  0.55077717  0.94847583    -0.20600
C610        C  0.23572093  0.55078905  0.94863776    -0.19200
C611        C  0.21565699  0.52384280  0.97105519     0.20000
C612        C  0.23558682  0.49591467  0.99371672     0.02100
C613        C  0.21412923  0.46973970  0.01635774    -0.13900
C614        C  0.17472639  0.47099664  0.01627780    -0.11600
C615        C  0.15502372  0.49826042  0.99372210     0.01700
C616        C  0.17574343  0.52472248  0.97114392    -0.23800
H617        H  0.35257984  0.44796331  0.03063287     0.09700
H618        H  0.28550663  0.44560383  0.03152548     0.13200
H619        H  0.35012982  0.54618543  0.95314942     0.12000
H620        H  0.28982775  0.57219894  0.93102834     0.13200
H621        H  0.22077934  0.57219430  0.93128408     0.12200
H622        H  0.22679143  0.44800757  0.03476230     0.09300
H623        H  0.15963235  0.45032591  0.03422436     0.12500
H624        H  0.16085829  0.54612877  0.95372440     0.14400
C625        C  0.99551390  0.50824944  0.85335686    -0.01100
C626        C  0.01750148  0.53457458  0.83228722    -0.09100
C627        C  0.01404995  0.53823033  0.79240192    -0.17900
C628        C  0.98851098  0.51529676  0.77223834     0.04400
C629        C  0.96604560  0.48880656  0.79384381     0.18600
C630        C  0.96933720  0.48593682  0.83410546    -0.19400
C631        C  0.94142964  0.46438704  0.77501816    -0.20600
C632        C  0.94015331  0.46426754  0.73477046    -0.19200
C633        C  0.96266801  0.48935428  0.71273840     0.20000
C634        C  0.98590926  0.51637496  0.73122255     0.02100
C635        C  0.00637551  0.54264000  0.70777461    -0.13900
C636        C  0.00648654  0.53979619  0.66760171    -0.11600
C637        C  0.98582052  0.51118946  0.64962305     0.01700
C638        C  0.96291171  0.48691638  0.67223478    -0.23800
H639        H  0.03788247  0.55224557  0.84656362     0.09700
H640        H  0.03266903  0.55839712  0.77821277     0.13200
H641        H  0.95209555  0.46557597  0.85029681     0.12000
H642        H  0.92408248  0.44430824  0.79142973     0.13200
H643        H  0.92191698  0.44404084  0.72078121     0.12200
H644        H  0.02281853  0.56551369  0.71944763     0.09300
H645        H  0.02334323  0.55981760  0.65060418     0.12500
H646        H  0.94608272  0.46528958  0.65841630     0.14400
C647        C  0.01690630  0.49925782  0.14902009    -0.01100
C648        C  0.03653072  0.46954038  0.16829940    -0.09100
C649        C  0.03894638  0.46981461  0.20853390    -0.17900
C650        C  0.02155744  0.49997955  0.23074359     0.04400
C651        C  0.00260081  0.53060756  0.21078226     0.18600
C652        C  0.00073729  0.53012351  0.17032280    -0.19400
C653        C  0.98452857  0.56093690  0.23131926    -0.20600
C654        C  0.98322343  0.56055670  0.27158292    -0.19200
C655        C  0.00048124  0.53015229  0.29203057     0.20000
C656        C  0.02098669  0.50008358  0.27202644     0.02100
C657        C  0.03916896  0.47093069  0.29425586    -0.13900
C658        C  0.03515385  0.47045459  0.33454925    -0.11600
C659        C  0.01313008  0.49899877  0.35381988     0.01700
C660        C  0.99664496  0.52925424  0.33247296    -0.23800
H661        H  0.04943446  0.44544826  0.15232784     0.09700
H662        H  0.05376658  0.44549015  0.22128643     0.13200
H663        H  0.98593552  0.55351537  0.15547011     0.12000
H664        H  0.97034729  0.58450070  0.21615564     0.13200
H665        H  0.96804790  0.58382728  0.28681494     0.12200
H666        H  0.05641336  0.44792296  0.28150732     0.09300
H667        H  0.04889104  0.44723624  0.35058202     0.12500
H668        H  0.98036952  0.55205766  0.34730342     0.14400
loop_ 
_geom_bond_atom_site_label_1 
_geom_bond_atom_site_label_2 
_geom_bond_distance 
_geom_bond_site_symmetry_2 
_ccdc_geom_bond_type 
O1           C17   1.274       .  A
O1           Zn7   1.990       .  S
C2           O18   1.276   1_455  A
C2           O15   1.274   1_556  A
C2          C549   1.488       .  S
O3           C16   1.275       .  A
O3          Cd10   2.070       .  S
O4           C22   1.272       .  A
O4          Cd13   2.037       .  S
O5           C19   1.275       .  A
O5           Cd9   2.076       .  S
O6           C17   1.272   1_455  A
O6           Cd9   2.031       .  S
Zn7          O18   2.038       .  S
Zn7          O20   2.027       .  S
Zn7          O12   1.940   1_656  S
O8           C19   1.273   1_554  A
O8          Cd13   2.054       .  S
Cd9          O11   2.072       .  S
Cd9          O12   1.999   1_556  S
Cd10         O14   2.073       .  S
Cd10         O23   2.047       .  S
Cd10         O12   1.989   1_655  S
O11          C21   1.274   1_456  A
O12         Cd13   1.985       .  S
Cd13         O15   2.067       .  S
O14          C21   1.275       .  A
C16          O20   1.275   1_554  A
C16         C581   1.486       .  S
C17         C625   1.464       .  S
C19         C615   1.482       .  S
C21         C559   1.486       .  S
C22          O23   1.274   1_455  A
C22         C647   1.465       .  S
O24          C40   1.273   1_455  A
O24         Zn30   2.019       .  S
C25          O41   1.273   1_655  A
C25          O38   1.273       .  A
C25         C637   1.464       .  S
O26          C39   1.274       .  A
O26         Cd33   2.072       .  S
O27          C45   1.274       .  A
O27         Cd36   2.071       .  S
O28          C42   1.275       .  A
O28         Cd32   2.080       .  S
O29          C40   1.272       .  A
O29         Cd32   2.062       .  S
Zn30         O41   1.983       .  S
Zn30         O43   2.024       .  S
Zn30         O35   1.940   1_455  S
O31          C42   1.274       .  A
O31         Cd36   2.070       .  S
Cd32         O34   2.044       .  S
Cd32         O35   1.992       .  S
Cd33         O37   2.044       .  S
Cd33         O46   2.073       .  S
Cd33         O35   1.993   1_455  S
O34          C44   1.275   1_655  A
O35         Cd36   1.994       .  S
Cd36         O38   2.039       .  S
O37          C44   1.274       .  A
C39          O43   1.274       .  A
C39         C515   1.482       .  S
C40         C483   1.482   1_655  S
C42         C493   1.478       .  S
C44         C659   1.466       .  S
C45          O46   1.275   1_655  A
C45         C449   1.485       .  S
O47          C63   1.275       .  A
O47         Zn53   2.031       .  S
C48          O64   1.274       .  A
C48          O61   1.272       .  A
C48         C427   1.457       .  S
O49          C62   1.275   1_556  A
O49         Cd56   2.077       .  S
O50          C68   1.274   1_554  A
O50         Cd59   2.066       .  S
O51          C65   1.275       .  A
O51         Cd55   2.086       .  S
O52          C63   1.274   1_556  A
O52         Cd55   2.062       .  S
Zn53         O64   1.993       .  S
Zn53         O66   2.021       .  S
Zn53         O58   1.938   1_554  S
O54          C65   1.273   1_554  A
O54         Cd59   2.057       .  S
Cd55         O57   2.036       .  S
Cd55         O58   1.996       .  S
Cd56         O60   2.042       .  S
Cd56         O69   2.068       .  S
Cd56         O58   1.997       .  S
O57          C67   1.273       .  A
O58         Cd59   1.987   1_556  S
Cd59         O61   2.037       .  S
O60          C67   1.273       .  A
C62          O66   1.274       .  A
C62         C593   1.487       .  S
C63         C383   1.485       .  S
C65         C603   1.485       .  S
C67         C405   1.456       .  S
C68          O69   1.274       .  A
C68         C373   1.483       .  S
O70          C86   1.271       .  A
O70         Zn76   1.997       .  S
C71          O87   1.270       .  A
C71          O84   1.273       .  A
C71         C417   1.448       .  S
O72          C85   1.273       .  A
O72         Cd79   2.075       .  S
O73          C91   1.273       .  A
O73         Cd82   2.066       .  S
O74          C88   1.275       .  A
O74         Cd78   2.080       .  S
O75          C86   1.275       .  A
O75         Cd78   2.084       .  S
Zn76         O87   1.969       .  S
Zn76         O89   2.019       .  S
Zn76         O81   1.931       .  S
O77          C88   1.274       .  A
O77         Cd82   2.073       .  S
Cd78         O80   2.054       .  S
Cd78         O81   2.002       .  S
Cd79         O83   2.041       .  S
Cd79         O92   2.073       .  S
Cd79         O81   1.992       .  S
O80          C90   1.276       .  A
O81         Cd82   1.994       .  S
Cd82         O84   2.042       .  S
O83          C90   1.274       .  A
C85          O89   1.272       .  A
C85         C505   1.478       .  S
C86         C339   1.483       .  S
C88         C527   1.476       .  S
C90         C439   1.457       .  S
C91          O92   1.274       .  A
C91         C317   1.483       .  S
N93          C98   1.360       .  A
N93          C97   1.354       .  A
N93         H125   1.040       .  S
N94         C101   1.353       .  A
N94         C102   1.358       .  A
N95         C100   1.354       .  A
N95          C99   1.360       .  A
N95         H126   1.040       .  S
N96         C103   1.358       .  A
N96         C104   1.353       .  A
C97         C105   1.390   1_655  A
C97         C113   1.423       .  A
C98         C114   1.420   1_565  A
C98         C106   1.384   1_655  A
C99         C107   1.385   1_655  A
C99         C116   1.421   1_545  A
C100        C115   1.423       .  A
C100        C108   1.389   1_655  A
C101        C113   1.421   1_556  A
C101        C109   1.388       .  A
C102        C116   1.419       .  A
C102        C110   1.384       .  A
C103        C111   1.383       .  A
C103        C114   1.418       .  A
C104        C112   1.389       .  A
C104        C115   1.422   1_554  A
C105        C106   1.377       .  A
C105        H117   1.082       .  S
C106        H118   1.082       .  S
C107        C108   1.377       .  A
C107        H119   1.082       .  S
C108        H120   1.082       .  S
C109        C110   1.374       .  A
C109        H121   1.082       .  S
C110        H122   1.082       .  S
C111        C112   1.374       .  A
C111        H123   1.082       .  S
C112        H124   1.082       .  S
C113        C571   1.492       .  S
C114        C295   1.510       .  S
C115        C537   1.494   1_655  S
C116        C273   1.512       .  S
N127        C132   1.353       .  A
N127        C131   1.360       .  A
N127        H159   1.039   1_655  S
N128        C135   1.358       .  A
N128        C136   1.353       .  A
N129        C134   1.360       .  A
N129        C133   1.353       .  A
N129        H160   1.039   1_655  S
N130        C137   1.353       .  A
N130        C138   1.357       .  A
C131        C139   1.386       .  A
C131        C147   1.423       .  A
C132        C148   1.421       .  A
C132        C140   1.388       .  A
C133        C141   1.389       .  A
C133        C150   1.422       .  A
C134        C149   1.422       .  A
C134        C142   1.385       .  A
C135        C147   1.419   1_545  A
C135        C143   1.384   1_655  A
C136        C150   1.420       .  A
C136        C144   1.388   1_655  A
C137        C145   1.388   1_655  A
C137        C148   1.420       .  A
C138        C146   1.384   1_655  A
C138        C149   1.419   1_565  A
C139        C140   1.377       .  A
C139        H151   1.082       .  S
C140        H152   1.082       .  S
C141        C142   1.377       .  A
C141        H153   1.082       .  S
C142        H154   1.082       .  S
C143        C144   1.372       .  A
C143        H155   1.082       .  S
C144        H156   1.082       .  S
C145        C146   1.374       .  A
C145        H157   1.082       .  S
C146        H158   1.082       .  S
C147        C285   1.512       .  S
C148        C471   1.487       .  S
C149        C307   1.509       .  S
C150        C461   1.490       .  S
N161        C166   1.354       .  A
N161        C165   1.361       .  A
N161        H193   1.039       .  S
N162        C169   1.357       .  A
N162        C170   1.352       .  A
N163        C168   1.358       .  A
N163        C167   1.353       .  A
N163        H194   1.039       .  S
N164        C171   1.353       .  A
N164        C172   1.357       .  A
C165        C173   1.385       .  A
C165        C181   1.422       .  A
C166        C182   1.424   1_556  A
C166        C174   1.390       .  A
C167        C175   1.389       .  A
C167        C184   1.420   1_554  A
C168        C183   1.418   1_545  A
C168        C176   1.385       .  A
C169        C181   1.417   1_545  A
C169        C177   1.384       .  A
C170        C184   1.419       .  A
C170        C178   1.388       .  A
C171        C179   1.389       .  A
C171        C182   1.421       .  A
C172        C180   1.384       .  A
C172        C183   1.417       .  A
C173        C174   1.378       .  A
C173        H185   1.082       .  S
C174        H186   1.082       .  S
C175        C176   1.377       .  A
C175        H187   1.082       .  S
C176        H188   1.082       .  S
C177        C178   1.374       .  A
C177        H189   1.082       .  S
C178        H190   1.082       .  S
C179        C180   1.375       .  A
C179        H191   1.082       .  S
C180        H192   1.082       .  S
C181        C229   1.506       .  S
C182        C395   1.491       .  S
C183        C251   1.503       .  S
C184        C361   1.486       .  S
N195        C200   1.353       .  A
N195        C199   1.361       .  A
N195        H227   1.036       .  S
N196        C203   1.358       .  A
N196        C204   1.353       .  A
N197        C202   1.362       .  A
N197        C201   1.353       .  A
N197        H228   1.036       .  S
N198        C205   1.352       .  A
N198        C206   1.359       .  A
C199        C207   1.386       .  A
C199        C215   1.423       .  A
C200        C216   1.424       .  A
C200        C208   1.389       .  A
C201        C209   1.389       .  A
C201        C218   1.424       .  A
C202        C217   1.426       .  A
C202        C210   1.386       .  A
C203        C215   1.420   1_565  A
C203        C211   1.384       .  A
C204        C218   1.423       .  A
C204        C212   1.389       .  A
C205        C213   1.388       .  A
C205        C216   1.422       .  A
C206        C214   1.385       .  A
C206        C217   1.422   1_545  A
C207        C208   1.375       .  A
C207        H219   1.082       .  S
C208        H220   1.082       .  S
C209        C210   1.376       .  A
C209        H221   1.082       .  S
C210        H222   1.081       .  S
C211        C212   1.373       .  A
C211        H223   1.082       .  S
C212        H224   1.082       .  S
C213        C214   1.373       .  A
C213        H225   1.082       .  S
C214        H226   1.082       .  S
C215        C263   1.508       .  S
C216        C329   1.486       .  S
C217        C241   1.513       .  S
C218        C351   1.487       .  S
C229        C230   1.402   1_565  A
C229        C234   1.404       .  A
C230        C231   1.407       .  A
C230        H243   1.083       .  S
C231        C232   1.418   1_545  A
C231        H244   1.078       .  S
C232        C238   1.444       .  A
C232        C233   1.425       .  A
C233        C235   1.401       .  A
C233        C234   1.416       .  A
C234        H245   1.084       .  S
C235        C236   1.394       .  A
C235        H246   1.084       .  S
C236        C237   1.401       .  A
C236        H247   1.084       .  S
C237        C238   1.424       .  A
C237        C242   1.416       .  A
C238        C239   1.418   1_565  A
C239        C240   1.407       .  A
C239        H248   1.078       .  S
C240        C241   1.404   1_545  A
C240        H249   1.083       .  S
C241        C242   1.406       .  A
C242        H250   1.084       .  S
C251        C252   1.401   1_565  A
C251        C256   1.403       .  A
C252        C253   1.405       .  A
C252        H265   1.083       .  S
C253        C254   1.418       .  A
C253        H266   1.078       .  S
C254        C260   1.442       .  A
C254        C255   1.424   1_545  A
C255        C257   1.401       .  A
C255        C256   1.415       .  A
C256        H267   1.084       .  S
C257        C258   1.394       .  A
C257        H268   1.084       .  S
C258        C259   1.401       .  A
C258        H269   1.084       .  S
C259        C260   1.424   1_565  A
C259        C264   1.415       .  A
C260        C261   1.418       .  A
C261        C262   1.405       .  A
C261        H270   1.078       .  S
C262        C263   1.402       .  A
C262        H271   1.083       .  S
C263        C264   1.405   1_545  A
C264        H272   1.084       .  S
C273        C274   1.404   1_655  A
C273        C278   1.407   1_565  A
C274        C275   1.404       .  A
C274        H287   1.083       .  S
C275        C276   1.417   1_455  A
C275        H288   1.078       .  S
C276        C282   1.442       .  A
C276        C277   1.424   1_565  A
C277        C279   1.401       .  A
C277        C278   1.416       .  A
C278        H289   1.084       .  S
C279        C280   1.395       .  A
C279        H290   1.084       .  S
C280        C281   1.401       .  A
C280        H291   1.084       .  S
C281        C282   1.423   1_545  A
C281        C286   1.415       .  A
C282        C283   1.417   1_655  A
C283        C284   1.405       .  A
C283        H292   1.078       .  S
C284        C285   1.403   1_455  A
C284        H293   1.083       .  S
C285        C286   1.407   1_565  A
C286        H294   1.084       .  S
C295        C296   1.403   1_545  A
C295        C300   1.406   1_655  A
C296        C297   1.406       .  A
C296        H309   1.083       .  S
C297        C298   1.418   1_565  A
C297        H310   1.078       .  S
C298        C304   1.443       .  A
C298        C299   1.424   1_655  A
C299        C301   1.401       .  A
C299        C300   1.416       .  A
C300        H311   1.084       .  S
C301        C302   1.395       .  A
C301        H312   1.084       .  S
C302        C303   1.401       .  A
C302        H313   1.084       .  S
C303        C304   1.424   1_455  A
C303        C308   1.417       .  A
C304        C305   1.417   1_545  A
C305        C306   1.405       .  A
C305        H314   1.078       .  S
C306        C307   1.402   1_565  A
C306        H315   1.083       .  S
C307        C308   1.406   1_655  A
C308        H316   1.084       .  S
C317        C318   1.401       .  A
C317        C322   1.404       .  A
C318        C319   1.396       .  A
C318        H331   1.083       .  S
C319        C320   1.415       .  A
C319        H332   1.077       .  S
C320        C326   1.430       .  A
C320        C321   1.422       .  A
C321        C323   1.400       .  A
C321        C322   1.406       .  A
C322        H333   1.084       .  S
C323        C324   1.390       .  A
C323        H334   1.084       .  S
C324        C325   1.399       .  A
C324        H335   1.084       .  S
C325        C326   1.423       .  A
C325        C330   1.405       .  A
C326        C327   1.416       .  A
C327        C328   1.395       .  A
C327        H336   1.077       .  S
C328        C329   1.397       .  A
C328        H337   1.083       .  S
C329        C330   1.400       .  A
C330        H338   1.085       .  S
C339        C340   1.402       .  A
C339        C344   1.402       .  A
C340        C341   1.393       .  A
C340        H353   1.083       .  S
C341        C342   1.413       .  A
C341        H354   1.077       .  S
C342        C348   1.429       .  A
C342        C343   1.423       .  A
C343        C345   1.400       .  A
C343        C344   1.407       .  A
C344        H355   1.084       .  S
C345        C346   1.391       .  A
C345        H356   1.084       .  S
C346        C347   1.400       .  A
C346        H357   1.084       .  S
C347        C348   1.423       .  A
C347        C352   1.406       .  A
C348        C349   1.416       .  A
C349        C350   1.394       .  A
C349        H358   1.077       .  S
C350        C351   1.397       .  A
C350        H359   1.084       .  S
C351        C352   1.400       .  A
C352        H360   1.085       .  S
C361        C362   1.398       .  A
C361        C366   1.399   1_556  A
C362        C363   1.395       .  A
C362        H375   1.083       .  S
C363        C364   1.416       .  A
C363        H376   1.077       .  S
C364        C370   1.429       .  A
C364        C365   1.423   1_556  A
C365        C367   1.399       .  A
C365        C366   1.405       .  A
C366        H377   1.085       .  S
C367        C368   1.390       .  A
C367        H378   1.084       .  S
C368        C369   1.400       .  A
C368        H379   1.084       .  S
C369        C370   1.422   1_554  A
C369        C374   1.405       .  A
C370        C371   1.415       .  A
C371        C372   1.396       .  A
C371        H380   1.077       .  S
C372        C373   1.401       .  A
C372        H381   1.083       .  S
C373        C374   1.403   1_556  A
C374        H382   1.084       .  S
C383        C384   1.402       .  A
C383        C388   1.402   1_554  A
C384        C385   1.400       .  A
C384        H397   1.083       .  S
C385        C386   1.416       .  A
C385        H398   1.077       .  S
C386        C392   1.432       .  A
C386        C387   1.422   1_554  A
C387        C389   1.399       .  A
C387        C388   1.403       .  A
C388        H399   1.084       .  S
C389        C390   1.388       .  A
C389        H400   1.084       .  S
C390        C391   1.398       .  A
C390        H401   1.084       .  S
C391        C392   1.424   1_556  A
C391        C396   1.403       .  A
C392        C393   1.416       .  A
C393        C394   1.399       .  A
C393        H402   1.077       .  S
C394        C395   1.400       .  A
C394        H403   1.083       .  S
C395        C396   1.398   1_554  A
C396        H404   1.085       .  S
C405        C406   1.396       .  A
C405        C410   1.397       .  A
C406        C407   1.386       .  A
C406        H419   1.084       .  S
C407        C408   1.412       .  A
C407        H420   1.077       .  S
C408        C414   1.415       .  A
C408        C409   1.421       .  A
C409        C411   1.399       .  A
C409        C410   1.396       .  A
C410        H421   1.085       .  S
C411        C412   1.387       .  A
C411        H422   1.084       .  S
C412        C413   1.398       .  A
C412        H423   1.084       .  S
C413        C414   1.421       .  A
C413        C418   1.395       .  A
C414        C415   1.413       .  A
C415        C416   1.386       .  A
C415        H424   1.077       .  S
C416        C417   1.394       .  A
C416        H425   1.084       .  S
C417        C418   1.394       .  A
C418        H426   1.085       .  S
C427        C428   1.397       .  A
C427        C432   1.395       .  A
C428        C429   1.390       .  A
C428        H441   1.084       .  S
C429        C430   1.414       .  A
C429        H442   1.078       .  S
C430        C436   1.418       .  A
C430        C431   1.421       .  A
C431        C433   1.398       .  A
C431        C432   1.395       .  A
C432        H443   1.085       .  S
C433        C434   1.386       .  A
C433        H444   1.084       .  S
C434        C435   1.398       .  A
C434        H445   1.084       .  S
C435        C436   1.422       .  A
C435        C440   1.395       .  A
C436        C437   1.414       .  A
C437        C438   1.390       .  A
C437        H446   1.077       .  S
C438        C439   1.396       .  A
C438        H447   1.084       .  S
C439        C440   1.396       .  A
C440        H448   1.085       .  S
C449        C450   1.403       .  A
C449        C454   1.402   1_655  A
C450        C451   1.398       .  A
C450        H463   1.083       .  S
C451        C452   1.415       .  A
C451        H464   1.077       .  S
C452        C458   1.431       .  A
C452        C453   1.422   1_655  A
C453        C455   1.399       .  A
C453        C454   1.404       .  A
C454        H465   1.084       .  S
C455        C456   1.389       .  A
C455        H466   1.084       .  S
C456        C457   1.398       .  A
C456        H467   1.084       .  S
C457        C458   1.423   1_455  A
C457        C462   1.404       .  A
C458        C459   1.416       .  A
C459        C460   1.397       .  A
C459        H468   1.077       .  S
C460        C461   1.400       .  A
C460        H469   1.083       .  S
C461        C462   1.399   1_655  A
C462        H470   1.085       .  S
C471        C472   1.398   1_655  A
C471        C476   1.399       .  A
C472        C473   1.397       .  A
C472        H485   1.083       .  S
C473        C474   1.416   1_455  A
C473        H486   1.077       .  S
C474        C480   1.431   1_655  A
C474        C475   1.424       .  A
C475        C477   1.399       .  A
C475        C476   1.405       .  A
C476        H487   1.085       .  S
C477        C478   1.389       .  A
C477        H488   1.084       .  S
C478        C479   1.399       .  A
C478        H489   1.084       .  S
C479        C480   1.422   1_655  A
C479        C484   1.404       .  A
C480        C481   1.416       .  A
C481        C482   1.398       .  A
C481        H490   1.077       .  S
C482        C483   1.401       .  A
C482        H491   1.083       .  S
C483        C484   1.402   1_455  A
C484        H492   1.084       .  S
C493        C494   1.400       .  A
C493        C498   1.400       .  A
C494        C495   1.399       .  A
C494        H507   1.083       .  S
C495        C496   1.416       .  A
C495        H508   1.078       .  S
C496        C502   1.431       .  A
C496        C497   1.422       .  A
C497        C499   1.399       .  A
C497        C498   1.405       .  A
C498        H509   1.085       .  S
C499        C500   1.390       .  A
C499        H510   1.084       .  S
C500        C501   1.399       .  A
C500        H511   1.084       .  S
C501        C502   1.423       .  A
C501        C506   1.406       .  A
C502        C503   1.415       .  A
C503        C504   1.398       .  A
C503        H512   1.078       .  S
C504        C505   1.400       .  A
C504        H513   1.083       .  S
C505        C506   1.401       .  A
C506        H514   1.085       .  S
C515        C516   1.400       .  A
C515        C520   1.403       .  A
C516        C517   1.397       .  A
C516        H529   1.083       .  S
C517        C518   1.415       .  A
C517        H530   1.077       .  S
C518        C524   1.430       .  A
C518        C519   1.422       .  A
C519        C521   1.400       .  A
C519        C520   1.407       .  A
C520        H531   1.085       .  S
C521        C522   1.392       .  A
C521        H532   1.084       .  S
C522        C523   1.400       .  A
C522        H533   1.084       .  S
C523        C524   1.423       .  A
C523        C528   1.408       .  A
C524        C525   1.415       .  A
C525        C526   1.396       .  A
C525        H534   1.077       .  S
C526        C527   1.399       .  A
C526        H535   1.084       .  S
C527        C528   1.401       .  A
C528        H536   1.085       .  S
C537        C538   1.401   1_556  A
C537        C542   1.401   1_455  A
C538        C539   1.398       .  A
C538        H551   1.083       .  S
C539        C540   1.416   1_554  A
C539        H552   1.077       .  S
C540        C546   1.432       .  A
C540        C541   1.423   1_455  A
C541        C543   1.399       .  A
C541        C542   1.405       .  A
C542        H553   1.085       .  S
C543        C544   1.389       .  A
C543        H554   1.084       .  S
C544        C545   1.399       .  A
C544        H555   1.084       .  S
C545        C546   1.423   1_655  A
C545        C550   1.406       .  A
C546        C547   1.415   1_556  A
C547        C548   1.399       .  A
C547        H556   1.077       .  S
C548        C549   1.403   1_554  A
C548        H557   1.083       .  S
C549        C550   1.403   1_455  A
C550        H558   1.084       .  S
C559        C560   1.402       .  A
C559        C564   1.404   1_654  A
C560        C561   1.396       .  A
C560        H573   1.083       .  S
C561        C562   1.414       .  A
C561        H574   1.077       .  S
C562        C568   1.431       .  A
C562        C563   1.423   1_654  A
C563        C565   1.400       .  A
C563        C564   1.407       .  A
C564        H575   1.084       .  S
C565        C566   1.390       .  A
C565        H576   1.084       .  S
C566        C567   1.399       .  A
C566        H577   1.084       .  S
C567        C568   1.423   1_456  A
C567        C572   1.405       .  A
C568        C569   1.416       .  A
C569        C570   1.397       .  A
C569        H578   1.077       .  S
C570        C571   1.399       .  A
C570        H579   1.083       .  S
C571        C572   1.402   1_654  A
C572        H580   1.085       .  S
C581        C582   1.402       .  A
C581        C586   1.404   1_554  A
C582        C583   1.396       .  A
C582        H595   1.083       .  S
C583        C584   1.415       .  A
C583        H596   1.077       .  S
C584        C590   1.432       .  A
C584        C585   1.422   1_554  A
C585        C587   1.400       .  A
C585        C586   1.407       .  A
C586        H597   1.084       .  S
C587        C588   1.391       .  A
C587        H598   1.084       .  S
C588        C589   1.400       .  A
C588        H599   1.084       .  S
C589        C590   1.422   1_556  A
C589        C594   1.408       .  A
C590        C591   1.414       .  A
C591        C592   1.397       .  A
C591        H600   1.077       .  S
C592        C593   1.402       .  A
C592        H601   1.083       .  S
C593        C594   1.404   1_554  A
C594        H602   1.084       .  S
C603        C604   1.401   1_556  A
C603        C608   1.405       .  A
C604        C605   1.391       .  A
C604        H617   1.083       .  S
C605        C606   1.412   1_554  A
C605        H618   1.076       .  S
C606        C612   1.428       .  A
C606        C607   1.422       .  A
C607        C609   1.401       .  A
C607        C608   1.410       .  A
C608        H619   1.084       .  S
C609        C610   1.393       .  A
C609        H620   1.084       .  S
C610        C611   1.401       .  A
C610        H621   1.084       .  S
C611        C612   1.422       .  A
C611        C616   1.409       .  A
C612        C613   1.413   1_556  A
C613        C614   1.391       .  A
C613        H622   1.076       .  S
C614        C615   1.401   1_554  A
C614        H623   1.083       .  S
C615        C616   1.404       .  A
C616        H624   1.084       .  S
C625        C626   1.398   1_655  A
C625        C630   1.399       .  A
C626        C627   1.386       .  A
C626        H639   1.083       .  S
C627        C628   1.412   1_455  A
C627        H640   1.077       .  S
C628        C634   1.417       .  A
C628        C629   1.421       .  A
C629        C631   1.398       .  A
C629        C630   1.396       .  A
C630        H641   1.084       .  S
C631        C632   1.387       .  A
C631        H642   1.084       .  S
C632        C633   1.398       .  A
C632        H643   1.084       .  S
C633        C634   1.421       .  A
C633        C638   1.396       .  A
C634        C635   1.412   1_655  A
C635        C636   1.386       .  A
C635        H644   1.077       .  S
C636        C637   1.398   1_455  A
C636        H645   1.083       .  S
C637        C638   1.399       .  A
C638        H646   1.085       .  S
C647        C648   1.399       .  A
C647        C652   1.398       .  A
C648        C649   1.389       .  A
C648        H661   1.083       .  S
C649        C650   1.413       .  A
C649        H662   1.077       .  S
C650        C656   1.420       .  A
C650        C651   1.422       .  A
C651        C653   1.398   1_455  A
C651        C652   1.396       .  A
C652        H663   1.085   1_455  S
C653        C654   1.385       .  A
C653        H664   1.084       .  S
C654        C655   1.398   1_655  A
C654        H665   1.084       .  S
C655        C656   1.421       .  A
C655        C660   1.395   1_455  A
C656        C657   1.414       .  A
C657        C658   1.390       .  A
C657        H666   1.077       .  S
C658        C659   1.399       .  A
C658        H667   1.083       .  S
C659        C660   1.399   1_455  A
C660        H668   1.085       .  S
