geometry optimzed in LAMMPS
_audit_creation_date              2020-11-30 
_audit_creation_method            'lammps2cif' 
_symmetry_space_group_name_H-M    'P1' 
_symmetry_Int_Tables_number       1 
_symmetry_cell_setting            triclinic 
loop_ 
_symmetry_equiv_pos_as_xyz 
  x,y,z 
_cell_length_a                    33.34604121 
_cell_length_b                    39.19788443801137 
_cell_length_c                    38.34972974851788 
_cell_angle_alpha                 89.99944138687206 
_cell_angle_beta                  90.00169060344514 
_cell_angle_gamma                 89.9957465527218 
loop_ 
_atom_site_label 
_atom_site_type_symbol 
_atom_site_fract_x 
_atom_site_fract_y 
_atom_site_fract_z 
_atom_site_charge 
C1          C  0.82895807  0.22181978  0.10456506     0.89000
C2          C  0.80144663  0.24250457  0.08028225    -0.51200
C3          C  0.77842031  0.26575639  0.09757716     0.12000
C4          C  0.78517176  0.26649009  0.13692218     0.22900
C5          C  0.85388109  0.24831579  0.12439760    -0.51900
C6          C  0.83058019  0.27179188  0.14117324     0.12100
C7          C  0.80060963  0.20613501  0.13154567    -0.51500
C8          C  0.77740306  0.22959147  0.14803222     0.12600
H9          H  0.79875507  0.23783330  0.05240924     0.17100
H10         H  0.76627396  0.28552069  0.15081918     0.02900
H11         H  0.88641540  0.24872900  0.12484460     0.17500
H12         H  0.79700138  0.17881033  0.13531752     0.17200
C13         C  0.83000497  0.21967587  0.39229581     0.89000
C14         C  0.80101020  0.20631842  0.36428274    -0.51200
C15         C  0.77768375  0.23130201  0.35000855     0.12000
C16         C  0.78622928  0.26707711  0.36399336     0.22900
C17         C  0.85480983  0.24751800  0.37445157    -0.51900
C18         C  0.83178271  0.27237842  0.35970496     0.12100
C19         C  0.80265042  0.23849097  0.41832432    -0.51500
C20         C  0.77934443  0.26296688  0.40313637     0.12600
H21         H  0.79666590  0.17939964  0.35875390     0.17100
H22         H  0.76744191  0.28727674  0.35181510     0.02900
H23         H  0.88737948  0.24747227  0.37334481     0.17500
H24         H  0.79946893  0.23106824  0.44551850     0.17200
O25         O  0.88990136  0.36886579  0.29180130    -0.79300
C26         C  0.78719888  0.44876162  0.20520865     1.00100
O27         O  0.77922500  0.42217686  0.22202491    -0.68400
O28         O  0.82351416  0.36898097  0.20771220    -0.72000
Al29       Al  0.80958005  0.39141652  0.24939634     1.49000
C30         C  0.85494249  0.35185849  0.20303128     0.95400
O31         O  0.92062317  0.41638280  0.20887271    -0.78200
O32         O  0.88381421  0.46513439  0.29138192    -0.71700
Al33       Al  0.90241910  0.39415399  0.25044733     1.90100
O34         O  0.89831759  0.46798158  0.21953033    -0.70800
O35         O  0.80635177  0.46439562  0.27897852    -0.70700
O36         O  0.82039811  0.46375112  0.20878302    -0.76300
O37         O  0.79009350  0.41129129  0.29096262    -0.74500
O38         O  0.85495854  0.41572001  0.24987944    -1.10700
O39         O  0.82860158  0.35475724  0.27708706    -0.69900
C40         C  0.85904573  0.35070528  0.29591739     1.00900
C41         C  0.91907247  0.44768077  0.20136421     0.97300
Al42       Al  0.85278052  0.46133540  0.24980018     1.55600
O43         O  0.88611887  0.35709266  0.22089931    -0.74500
C44         C  0.78554777  0.44285891  0.29543774     1.01400
C45         C  0.91630445  0.45053084  0.29893057     0.96300
O46         O  0.92912143  0.42602411  0.28074946    -0.79800
O47         O  0.89648001  0.12400901  0.45720707    -0.79300
C48         C  0.79139349  0.04751470  0.04481064     1.00100
O49         O  0.78406313  0.07389445  0.02741842    -0.68400
O50         O  0.82957002  0.12648591  0.04081468    -0.72000
Al51       Al  0.81511787  0.10360450  0.49954289     1.49000
C52         C  0.86148139  0.14302118  0.04530957     0.95400
O53         O  0.92449055  0.07671979  0.04102713    -0.78200
O54         O  0.88615587  0.02831281  0.45852761    -0.71700
Al55       Al  0.90773379  0.09886029  0.99899363     1.90100
O56         O  0.90154911  0.02545211  0.02976148    -0.70800
O57         O  0.80920400  0.03018565  0.47169181    -0.70700
O58         O  0.82411885  0.03171818  0.04151762    -0.76300
O59         O  0.79532223  0.08341054  0.45830511    -0.74500
O60         O  0.85961751  0.07841958  0.49958359    -1.10700
O61         O  0.83532336  0.13924091  0.47130957    -0.69900
C62         C  0.86606014  0.14263380  0.45271227     1.00900
C63         C  0.92214359  0.04541739  0.04832782     0.97300
Al64       Al  0.85597110  0.03286269  0.50020152     1.55600
O65         O  0.89259982  0.13676026  0.02778155    -0.74500
C66         C  0.78943514  0.05190836  0.45466401     1.01400
C67         C  0.91926499  0.04185241  0.45109592     0.96300
O68         O  0.93335248  0.06581273  0.46935974    -0.79800
C69         C  0.98542894  0.49523833  0.37485156     0.00100
O70         O  0.08094167  0.36886016  0.45791508    -0.79300
C71         C  0.18365565  0.44874130  0.04449921     1.00100
O72         O  0.19162519  0.42215609  0.02768127    -0.68400
O73         O  0.14733619  0.36896944  0.04199930    -0.72000
Al74       Al  0.16126692  0.39140095  0.50031324     1.49000
C75         C  0.11590389  0.35185288  0.04668569     0.95400
O76         O  0.05022712  0.41638354  0.04084430    -0.78200
O77         O  0.08703396  0.46512966  0.45833274    -0.71700
Al78       Al  0.06842686  0.39415156  0.99926899     1.90100
O79         O  0.07253480  0.46797869  0.03018630    -0.70800
O80         O  0.16449771  0.46437890  0.47073103    -0.70700
O81         O  0.15045482  0.46373588  0.04092769    -0.76300
O82         O  0.18075105  0.41127257  0.45874414    -0.74500
O83         O  0.11588959  0.41571086  0.49983328    -1.10700
O84         O  0.14224270  0.35474454  0.47262610    -0.69900
C85         C  0.11179676  0.35069704  0.45379492     1.00900
C86         C  0.05178323  0.44768082  0.04835385     0.97300
Al87       Al  0.11806973  0.46132590  0.49991258     1.55600
O88         O  0.08472940  0.35708883  0.02881990    -0.74500
C89         C  0.18529981  0.44284099  0.45427246     1.01400
C90         C  0.05454328  0.45052822  0.45078353     0.96300
O91         O  0.04172578  0.42602563  0.46896605    -0.79800
O92         O  0.07441425  0.12402098  0.29250174    -0.79300
C93         C  0.17948006  0.04748292  0.20490367     1.00100
O94         O  0.18681719  0.07385780  0.22229974    -0.68400
O95         O  0.14132794  0.12646445  0.20889802    -0.72000
Al96       Al  0.15576918  0.10357916  0.25017126     1.49000
C97         C  0.10942358  0.14301229  0.20440133     0.95400
O98         O  0.04638206  0.07672737  0.20868965    -0.78200
O99         O  0.08470539  0.02830803  0.29118396    -0.71700
Al100      Al  0.06315136  0.09886754  0.25071930     1.90100
O101        O  0.06931792  0.02545420  0.21995278    -0.70800
O102        O  0.16165906  0.03015924  0.27802366    -0.70700
O103        O  0.14674869  0.03169724  0.20819656    -0.76300
O104        O  0.17555194  0.08338029  0.29141102    -0.74500
O105        O  0.11126087  0.07840984  0.25012987    -1.10700
O106        O  0.13557680  0.13922561  0.27839884    -0.69900
C107        C  0.10483927  0.14263587  0.29699323     1.00900
C108        C  0.04872131  0.04542305  0.20138829     0.97300
Al109      Al  0.11489513  0.03285105  0.24951222     1.55600
O110        O  0.07829855  0.13675865  0.22192496    -0.74500
C111        C  0.18143207  0.05187533  0.29505391     1.01400
C112        C  0.05160140  0.04185861  0.29861904     0.96300
O113        O  0.03752490  0.06583187  0.28036020    -0.79800
C114        C  0.14089478  0.21969383  0.35739266     0.89000
C115        C  0.16989585  0.20633529  0.38540863    -0.51200
C116        C  0.19320840  0.23132545  0.39968432     0.12000
C117        C  0.18465349  0.26710190  0.38570444     0.22900
C118        C  0.11608090  0.24752994  0.37523904    -0.51900
C119        C  0.13909163  0.27239144  0.38998873     0.12100
C120        C  0.16824610  0.23851664  0.33136937    -0.51500
C121        C  0.19153938  0.26299283  0.34655862     0.12600
H122        H  0.17424729  0.17942493  0.39093357     0.17100
H123        H  0.20342467  0.28729728  0.39788069     0.02900
H124        H  0.08350848  0.24747733  0.37634390     0.17500
H125        H  0.17143326  0.23109461  0.30417464     0.17200
C126        C  0.14195646  0.22182673  0.14516965     0.89000
C127        C  0.16946037  0.24252100  0.16943241    -0.51200
C128        C  0.19247321  0.26577445  0.15215688     0.12000
C129        C  0.18570894  0.26651676  0.11280583     0.22900
C130        C  0.11700512  0.24832710  0.12534049    -0.51900
C131        C  0.14030406  0.27180841  0.10856463     0.12100
C132        C  0.17030059  0.20616886  0.11817818    -0.51500
C133        C  0.19349304  0.22961491  0.10169065     0.12600
H134        H  0.17216470  0.23783729  0.19733501     0.17100
H135        H  0.20459815  0.28555370  0.09890653     0.02900
H136        H  0.08448764  0.24873210  0.12489772     0.17500
H137        H  0.17392563  0.17881898  0.11439893     0.17200
C138        C  0.98543175  0.49560197  0.12486431     0.00100
O139        O  0.38993198  0.38200909  0.20791894    -0.79300
C140        C  0.28721753  0.30212389  0.29449357     1.00100
O141        O  0.27924687  0.32871021  0.27767699    -0.68400
O142        O  0.32353521  0.38189610  0.29199859    -0.72000
Al143      Al  0.30960660  0.35946656  0.25031125     1.49000
C144        C  0.35496843  0.39901336  0.29668870     0.95400
O145        O  0.42064536  0.33448184  0.29084764    -0.78200
O146        O  0.38384152  0.28573973  0.20833162    -0.71700
Al147      Al  0.40244589  0.35671580  0.24927259     1.90100
O148        O  0.39833755  0.28288719  0.28018690    -0.70800
O149        O  0.30637755  0.28648936  0.22072611    -0.70700
O150        O  0.32041576  0.28712879  0.29092346    -0.76300
O151        O  0.29012232  0.33959610  0.20874076    -0.74500
O152        O  0.35498399  0.33515636  0.24983318    -1.10700
O153        O  0.32863047  0.39612369  0.22262626    -0.69900
C154        C  0.35907800  0.40017181  0.20379679     1.00900
C155        C  0.41908968  0.30318387  0.29835604     0.97300
Al156      Al  0.35280413  0.28954138  0.24991031     1.55600
O157        O  0.38614262  0.39377694  0.27882409    -0.74500
C158        C  0.28557394  0.30802895  0.20426667     1.01400
C159        C  0.41633127  0.30034270  0.20078566     0.96300
O160        O  0.42914886  0.32484324  0.21896915    -0.79800
O161        O  0.39646037  0.12684950  0.04250718    -0.79300
C162        C  0.29139671  0.20338394  0.45489821     1.00100
O163        O  0.28406054  0.17700985  0.47229358    -0.68400
O164        O  0.32955243  0.12440238  0.45889591    -0.72000
Al165      Al  0.31510832  0.14728893  0.00016753     1.49000
C166        C  0.36145527  0.10785393  0.45440393     0.95400
O167        O  0.42449800  0.17413853  0.45869439    -0.78200
O168        O  0.38617154  0.22256388  0.04118065    -0.71700
Al169      Al  0.40772630  0.15200044  0.50072377     1.90100
O170        O  0.40155913  0.22541208  0.46994965    -0.70800
O171        O  0.30921818  0.22070979  0.02801773    -0.70700
O172        O  0.32412862  0.21917006  0.45819100    -0.76300
O173        O  0.29532477  0.16748861  0.04140536    -0.74500
O174        O  0.35961653  0.17245856  0.00012864    -1.10700
O175        O  0.33529979  0.11164276  0.02839732    -0.69900
C176        C  0.36603492  0.10823356  0.04699593     1.00900
C177        C  0.42215801  0.20544258  0.45138925     0.97300
Al178      Al  0.35598215  0.21801731  0.99950792     1.55600
O179        O  0.39258065  0.11410778  0.47193060    -0.74500
C180        C  0.28944500  0.19899288  0.04504783     1.01400
C181        C  0.41927634  0.20901184  0.04861832     0.96300
O182        O  0.43335121  0.18503832  0.03036533    -0.79800
C183        C  0.32892392  0.02903651  0.39517715     0.89000
C184        C  0.30141834  0.00834046  0.41944301    -0.51200
C185        C  0.27840462  0.48508932  0.40216402     0.12000
C186        C  0.28516254  0.48434737  0.36281317     0.22900
C187        C  0.35387372  0.00253283  0.37534920    -0.51900
C188        C  0.33057986  0.47905430  0.35857419     0.12100
C189        C  0.30058019  0.04468806  0.36818622    -0.51500
C190        C  0.27738635  0.02125251  0.35169888     0.12600
H191        H  0.29871543  0.01302334  0.44733810     0.17100
H192        H  0.26627515  0.46531154  0.34891672     0.02900
H193        H  0.38638832  0.00212884  0.37490657     0.17500
H194        H  0.29695766  0.07204956  0.36440611     0.17200
C195        C  0.32997609  0.03117898  0.10739730     0.89000
C196        C  0.30097615  0.04453189  0.13541287    -0.51200
C197        C  0.27766551  0.01954712  0.14968988     0.12000
C198        C  0.28622184  0.48376802  0.13571077     0.22900
C199        C  0.35478788  0.00334044  0.12524409    -0.51900
C200        C  0.33177725  0.47847936  0.13999383     0.12100
C201        C  0.30262145  0.01235412  0.08137531    -0.51500
C202        C  0.27933105  0.48787860  0.09656316     0.12600
H203        H  0.29662291  0.07145110  0.14094029     0.17100
H204        H  0.26745368  0.46357518  0.14788691     0.02900
H205        H  0.38736740  0.00339147  0.12634965     0.17500
H206        H  0.29943040  0.01977623  0.05417782     0.17200
C207        C  0.48544865  0.25526072  0.37486431     0.00100
C208        C  0.64192328  0.02904935  0.35455938     0.89000
C209        C  0.66943137  0.00836738  0.33027547    -0.51200
C210        C  0.69246140  0.48511398  0.34757110     0.12000
C211        C  0.68570982  0.48437832  0.38691467     0.22900
C212        C  0.61699644  0.00255137  0.37438866    -0.51900
C213        C  0.64030262  0.47907410  0.39116521     0.12100
C214        C  0.67026745  0.04472972  0.38153924    -0.51500
C215        C  0.69347858  0.02127732  0.39802785     0.12600
H216        H  0.67212136  0.01303993  0.30240149     0.17100
H217        H  0.70461229  0.46534610  0.40081364     0.02900
H218        H  0.58446928  0.00213677  0.37483487     0.17500
H219        H  0.67387570  0.07206446  0.38531394     0.17200
O220        O  0.57440218  0.12686710  0.20720199    -0.79300
C221        C  0.67948919  0.20335777  0.29481464     1.00100
O222        O  0.68681751  0.17697721  0.27742281    -0.68400
O223        O  0.64130738  0.12438614  0.29081674    -0.72000
Al224      Al  0.65576250  0.14726780  0.24954602     1.49000
C225        C  0.60939924  0.10785003  0.29530802     0.95400
O226        O  0.54638948  0.17415011  0.29102231    -0.78200
O227        O  0.58472448  0.22256260  0.20852797    -0.71700
Al228      Al  0.56314731  0.15201247  0.24898918     1.90100
O229        O  0.56933274  0.22541881  0.27976161    -0.70800
O230        O  0.66167571  0.22068813  0.22169436    -0.70700
O231        O  0.64676226  0.21915377  0.29151924    -0.76300
O232        O  0.67555849  0.16746294  0.20830988    -0.74500
O233        O  0.61126292  0.17245338  0.24958363    -1.10700
O234        O  0.63555700  0.11163197  0.22131121    -0.69900
C235        C  0.60482360  0.10824012  0.20270884     1.00900
C236        C  0.54873602  0.20545322  0.29832711     0.97300
Al237      Al  0.61490985  0.21801010  0.25020260     1.55600
O238        O  0.57827912  0.11411078  0.27777533    -0.74500
C239        C  0.68144608  0.19896313  0.20466683     1.01400
C240        C  0.55161473  0.20902301  0.20109406     0.96300
O241        O  0.53752852  0.18506164  0.21935573    -0.79800
C242        C  0.64087759  0.03120316  0.14228916     0.89000
C243        C  0.66987486  0.04456398  0.11427385    -0.51200
C244        C  0.69319592  0.01957499  0.10000253     0.12000
C245        C  0.68464769  0.48380240  0.11398390     0.22900
C246        C  0.61606806  0.00336183  0.12444029    -0.51900
C247        C  0.63909723  0.47850073  0.10969409     0.12100
C248        C  0.66823168  0.01238316  0.16831168    -0.51500
C249        C  0.69153515  0.48790867  0.15312980     0.12600
H250        H  0.67422035  0.07147396  0.10874915     0.17100
H251        H  0.70343632  0.46360044  0.10180433     0.02900
H252        H  0.58350546  0.00340759  0.12333437     0.17500
H253        H  0.67141423  0.01980686  0.19551375     0.17200
O254        O  0.58097640  0.38200912  0.04179572    -0.79300
C255        C  0.68367959  0.30210657  0.45521590     1.00100
O256        O  0.69165457  0.32869309  0.47203191    -0.68400
O257        O  0.64736778  0.38188778  0.45771231    -0.72000
Al258      Al  0.66130007  0.35945469  0.99939929     1.49000
C259        C  0.61593790  0.39901016  0.45302770     0.95400
O260        O  0.55025722  0.33448602  0.45886950    -0.78200
O261        O  0.58706447  0.28573944  0.04138683    -0.71700
Al262      Al  0.56846028  0.35671788  0.50044336     1.90100
O263        O  0.57256139  0.28288782  0.46953415    -0.71200
O264        O  0.66452710  0.28647743  0.02898691    -0.70700
O265        O  0.65048152  0.28711808  0.45879065    -0.76300
O266        O  0.68078582  0.33958210  0.04096820    -0.74500
O267        O  0.61592116  0.33515161  0.99988123    -1.10700
O268        O  0.64227780  0.39611540  0.02708616    -0.69900
C269        C  0.61183366  0.40017108  0.04591354     1.00900
C270        C  0.55180734  0.30318749  0.45136425     0.97300
Al271      Al  0.61809847  0.28953611  0.99980605     1.55600
O272        O  0.58476254  0.39377703  0.47089262    -0.74500
C273        C  0.68533138  0.30801426  0.04544489     1.01400
C274        C  0.55457247  0.30034581  0.04893019     0.96300
O275        O  0.54175774  0.32484892  0.03074739    -0.79800
C276        C  0.48544682  0.25563990  0.12485115     0.00100
C277        C  0.51133254  0.27641401  0.10184786    -0.10700
C278        C  0.53139162  0.28855116  0.07851044    -0.12300
C279        C  0.61348353  0.42661884  0.07176128    -0.10700
C280        C  0.62250884  0.45017899  0.09043544    -0.12300
C281        C  0.52927683  0.22156756  0.17157166    -0.10700
C282        C  0.51032783  0.23457565  0.14815302    -0.12300
C283        C  0.60598886  0.08197869  0.17669140    -0.10700
C284        C  0.61753405  0.05854702  0.15892112    -0.12300
C285        C  0.61937760  0.05536092  0.33610806    -0.10700
C286        C  0.61006532  0.07964155  0.31880341    -0.12300
C287        C  0.62441417  0.45092745  0.41071803    -0.10700
C288        C  0.61710210  0.42664670  0.42877131    -0.12300
C289        C  0.51017647  0.23374061  0.35161771    -0.10700
C290        C  0.52772458  0.21915699  0.32822631    -0.12300
C291        C  0.51088770  0.27644670  0.39814528    -0.10700
C292        C  0.52959958  0.29004849  0.42161539    -0.12300
C293        C  0.44317878  0.21914450  0.42149417    -0.10700
C294        C  0.46072756  0.23373333  0.39810793    -0.12300
C295        C  0.46056944  0.23457329  0.10154992    -0.10700
C296        C  0.44162058  0.22155961  0.07813605    -0.12300
C297        C  0.36077294  0.07963735  0.43091702    -0.10700
C298        C  0.35145783  0.05534966  0.41362250    -0.12300
C299        C  0.36485976  0.08196027  0.07300381    -0.10700
C300        C  0.35331001  0.05852524  0.09076331    -0.12300
C301        C  0.43950661  0.28854963  0.17119978    -0.10700
C302        C  0.45955938  0.27641392  0.14785645    -0.12300
C303        C  0.46000236  0.27644519  0.35158357    -0.10700
C304        C  0.44129224  0.29004469  0.32811076    -0.12300
C305        C  0.34648042  0.45091580  0.33901527    -0.10700
C306        C  0.35380244  0.42664160  0.32095199    -0.12300
C307        C  0.34838261  0.45016402  0.15926014    -0.10700
C308        C  0.35742004  0.42661289  0.17794123    -0.12300
C309        C  0.22515945  0.28361371  0.16829314    -0.10700
C310        C  0.25367158  0.29604693  0.18265441    -0.12300
C311        C  0.25727938  0.21040524  0.06648372    -0.10700
C312        C  0.22801054  0.21973360  0.08196115    -0.12300
C313        C  0.26007270  0.21609061  0.43307866    -0.10700
C314        C  0.22958810  0.22368880  0.41821535    -0.12300
C315        C  0.25610056  0.28791991  0.31571282    -0.10700
C316        C  0.22643365  0.27707516  0.32978292    -0.12300
C317        C  0.24286697  0.03113175  0.33196842    -0.10700
C318        C  0.21359831  0.04046313  0.31649090    -0.12300
C319        C  0.21080286  0.03477813  0.18308468    -0.10700
C320        C  0.24128699  0.02718046  0.16822080    -0.12300
C321        C  0.01015443  0.01712862  0.14810681    -0.10700
C322        C  0.02770239  0.03171895  0.17149264    -0.12300
C323        C  0.11010780  0.17122613  0.18091169    -0.10700
C324        C  0.11942370  0.19551148  0.16361425    -0.12300
C325        C  0.11755971  0.19234572  0.34075895    -0.10700
C326        C  0.10601241  0.16891066  0.32299977    -0.12300
C327        C  0.21476992  0.46294564  0.06571797    -0.10700
C328        C  0.24443859  0.47379343  0.07978953    -0.12300
C329        C  0.21720395  0.45482269  0.43266178    -0.10700
C330        C  0.24571584  0.46725314  0.41830159    -0.12300
C331        C  0.02958215  0.46081861  0.07810923    -0.10700
C332        C  0.01087483  0.47441736  0.10158244    -0.12300
C333        C  0.12249379  0.30070681  0.40925660    -0.10700
C334        C  0.11345455  0.32425661  0.42793816    -0.12300
C335        C  0.11706959  0.32422165  0.07094805    -0.10700
C336        C  0.12439066  0.29994725  0.08900805    -0.12300
C337        C  0.02925656  0.02931582  0.32813535    -0.10700
C338        C  0.01030621  0.01630383  0.35155100    -0.12300
C339        C  0.01131529  0.47446296  0.39785578    -0.10700
C340        C  0.03136922  0.46232317  0.42119981    -0.12300
C341        C  0.94315660  0.03170976  0.07822947    -0.10700
C342        C  0.96070265  0.01712478  0.10161760    -0.12300
C343        C  0.94160284  0.02931011  0.42157295    -0.10700
C344        C  0.96054980  0.01630326  0.39815413    -0.12300
C345        C  0.75726196  0.04050307  0.43322745    -0.10700
C346        C  0.72799427  0.03117483  0.41775308    -0.12300
C347        C  0.72957809  0.02721517  0.08147954    -0.10700
C348        C  0.76006340  0.03481337  0.06662450    -0.12300
C349        C  0.94128067  0.46081731  0.17161544    -0.10700
C350        C  0.95999278  0.47441728  0.14814506    -0.12300
C351        C  0.93948380  0.46232571  0.32850944    -0.10700
C352        C  0.95954226  0.47446576  0.35184887    -0.12300
C353        C  0.75365190  0.45484480  0.31705337    -0.10700
C354        C  0.72514321  0.46727900  0.33142036    -0.12300
C355        C  0.72642295  0.47382248  0.16991007    -0.10700
C356        C  0.75608706  0.46297131  0.18398568    -0.12300
C357        C  0.71081776  0.21605964  0.31662747    -0.10700
C358        C  0.74130510  0.22366095  0.33148497    -0.12300
C359        C  0.74445569  0.27704881  0.41991887    -0.10700
C360        C  0.71479096  0.28789869  0.43399403    -0.12300
C361        C  0.84836760  0.30070175  0.34044385    -0.10700
C362        C  0.85739333  0.32425819  0.32176957    -0.12300
C363        C  0.85335121  0.19233099  0.40892942    -0.10700
C364        C  0.86489552  0.16889946  0.42669580    -0.12300
C365        C  0.74573810  0.28359415  0.08142757    -0.10700
C366        C  0.71722934  0.29602911  0.06706110    -0.12300
C367        C  0.74288602  0.21969461  0.16775743    -0.10700
C368        C  0.71361736  0.21036874  0.18323203    -0.12300
C369        C  0.84646956  0.29993848  0.16072559    -0.10700
C370        C  0.85378123  0.32422044  0.17877777    -0.12300
C371        C  0.86081165  0.17122837  0.06880789    -0.10700
C372        C  0.85149903  0.19550712  0.08611358    -0.12300
C373        C  0.82895565  0.22181710  0.60456234     0.89000
C374        C  0.80144908  0.24250713  0.58029376    -0.51200
C375        C  0.77842072  0.26575584  0.59757199     0.12000
C376        C  0.78517696  0.26648995  0.63692041     0.22900
C377        C  0.85388615  0.24831805  0.62439788    -0.51900
C378        C  0.83057597  0.27179412  0.64117326     0.12100
C379        C  0.80061250  0.20614906  0.63154396    -0.51500
C380        C  0.77740296  0.22958814  0.64803248     0.12600
H381        H  0.79875550  0.23782886  0.55239293     0.17100
H382        H  0.76626958  0.28552932  0.65082381     0.02900
H383        H  0.88641212  0.24873202  0.62484553     0.17500
H384        H  0.79700036  0.17879524  0.63531888     0.17200
C385        C  0.83000516  0.21967522  0.89229706     0.89000
C386        C  0.80101156  0.20632157  0.86428347    -0.51200
C387        C  0.77768502  0.23130067  0.85000866     0.12000
C388        C  0.78623123  0.26707682  0.86399287     0.22900
C389        C  0.85481241  0.24751965  0.87445066    -0.51900
C390        C  0.83178143  0.27237950  0.85970415     0.12100
C391        C  0.80265156  0.23849296  0.91831943    -0.51500
C392        C  0.77934545  0.26296644  0.90313790     0.12600
H393        H  0.79666577  0.17939487  0.85875426     0.17100
H394        H  0.76744307  0.28727897  0.85181248     0.02900
H395        H  0.88737828  0.24747719  0.87334326     0.17500
H396        H  0.79946860  0.23106743  0.94552498     0.17200
O397        O  0.88990142  0.36886567  0.79180052    -0.79300
C398        C  0.78719946  0.44876224  0.70520793     1.00100
O399        O  0.77922521  0.42217604  0.72202502    -0.68400
O400        O  0.82351435  0.36898088  0.70771127    -0.72000
Al401      Al  0.80958065  0.39141621  0.74939577     1.49000
C402        C  0.85494389  0.35185873  0.70303086     0.95400
O403        O  0.92062402  0.41638318  0.70887226    -0.78200
O404        O  0.88381464  0.46513440  0.79138161    -0.71700
Al405      Al  0.90241968  0.39415395  0.75044692     1.90100
O406        O  0.89831804  0.46798167  0.71952972    -0.70800
O407        O  0.80635188  0.46439498  0.77897838    -0.70700
O408        O  0.82039811  0.46375050  0.70878285    -0.76300
O409        O  0.79009394  0.41129062  0.79096230    -0.74500
O410        O  0.85495898  0.41571981  0.74987897    -1.10700
O411        O  0.82860161  0.35475699  0.77708583    -0.69900
C412        C  0.85904697  0.35070462  0.79591748     1.00900
C413        C  0.91907239  0.44768061  0.70136453     0.97300
Al414      Al  0.85278090  0.46133525  0.74979980     1.55600
O415        O  0.88611905  0.35709255  0.72089817    -0.74500
C416        C  0.78554884  0.44285863  0.79543702     1.01400
C417        C  0.91630455  0.45053070  0.79892999     0.96300
O418        O  0.92912187  0.42602416  0.78074935    -0.79800
O419        O  0.89648060  0.12400909  0.95720741    -0.79300
C420        C  0.79139396  0.04751361  0.54481112     1.00100
O421        O  0.78406278  0.07389490  0.52741809    -0.68400
O422        O  0.82957012  0.12648575  0.54081445    -0.72000
Al423      Al  0.81511811  0.10360474  0.99954294     1.49000
C424        C  0.86148096  0.14302114  0.54530937     0.95400
O425        O  0.92449000  0.07672016  0.54102638    -0.78200
O426        O  0.88615570  0.02831240  0.95852751    -0.71700
Al427      Al  0.90773356  0.09886025  0.49899347     1.90100
O428        O  0.90154839  0.02545208  0.52976060    -0.70800
O429        O  0.80920472  0.03018623  0.97169209    -0.70700
O430        O  0.82411838  0.03171856  0.54151743    -0.76300
O431        O  0.79532310  0.08341148  0.95830544    -0.74500
O432        O  0.85961781  0.07841959  0.99958380    -1.10700
O433        O  0.83532382  0.13924103  0.97130975    -0.69900
C434        C  0.86606029  0.14263442  0.95271232     1.00900
C435        C  0.92214455  0.04541704  0.54832896     0.97300
Al436      Al  0.85597126  0.03286278  0.00020153     1.55600
O437        O  0.89259976  0.13676035  0.52778105    -0.74500
C438        C  0.78943486  0.05190804  0.95466342     1.01400
C439        C  0.91926606  0.04185302  0.95109586     0.96300
O440        O  0.93335233  0.06581233  0.96935934    -0.79800
C441        C  0.98542867  0.49523853  0.87485148     0.00100
O442        O  0.08094008  0.36886037  0.95791478    -0.79300
C443        C  0.18365549  0.44874195  0.54449894     1.00100
O444        O  0.19162676  0.42215607  0.52768113    -0.68400
O445        O  0.14733690  0.36896953  0.54199922    -0.72000
Al446      Al  0.16126594  0.39140070  0.00031327     1.49000
C447        C  0.11590563  0.35185301  0.54668630     0.95400
O448        O  0.05022836  0.41638370  0.54084394    -0.78200
O449        O  0.08703234  0.46512901  0.95833252    -0.71700
Al450      Al  0.06842774  0.39415164  0.49926919     1.90100
O451        O  0.07253629  0.46797906  0.53018578    -0.70800
O452        O  0.16449679  0.46437932  0.97073131    -0.70700
O453        O  0.15045672  0.46373573  0.54092783    -0.76300
O454        O  0.18075024  0.41127306  0.95874422    -0.74500
O455        O  0.11588851  0.41571078  0.99983327    -1.10700
O456        O  0.14224107  0.35474441  0.97262568    -0.69900
C457        C  0.11179688  0.35069660  0.95379485     1.00900
C458        C  0.05178314  0.44768120  0.54835506     0.97300
Al459      Al  0.11806904  0.46132575  0.99991253     1.55600
O460        O  0.08472995  0.35708907  0.52881991    -0.74500
C461        C  0.18529922  0.44283973  0.95427245     1.01400
C462        C  0.05454371  0.45052888  0.95078341     0.96300
O463        O  0.04172423  0.42602515  0.96896629    -0.79800
O464        O  0.07441501  0.12402077  0.79250180    -0.79300
C465        C  0.17947936  0.04748304  0.70490420     1.00100
O466        O  0.18681831  0.07385771  0.72229949    -0.68400
O467        O  0.14132828  0.12646503  0.70889836    -0.72000
Al468      Al  0.15576986  0.10357898  0.75017150     1.49000
C469        C  0.10942497  0.14301231  0.70440168     0.95400
O470        O  0.04638241  0.07672855  0.70868946    -0.78200
O471        O  0.08470541  0.02830742  0.79118407    -0.71700
Al472      Al  0.06315202  0.09886753  0.75071920     1.90100
O473        O  0.06931798  0.02545519  0.71995203    -0.70800
O474        O  0.16165989  0.03015852  0.77802372    -0.70700
O475        O  0.14675017  0.03169739  0.70819606    -0.76300
O476        O  0.17555290  0.08337916  0.79141149    -0.74500
O477        O  0.11126149  0.07840974  0.75012993    -1.10700
O478        O  0.13557769  0.13922516  0.77839921    -0.69900
C479        C  0.10483957  0.14263525  0.79699331     1.00900
C480        C  0.04872249  0.04542224  0.70138843     0.97300
Al481      Al  0.11489563  0.03285094  0.74951202     1.55600
O482        O  0.07829880  0.13675893  0.72192522    -0.74500
C483        C  0.18143171  0.05187541  0.79505327     1.01400
C484        C  0.05160222  0.04185916  0.79861751     0.96300
O485        O  0.03752534  0.06583128  0.78036069    -0.79800
C486        C  0.14089583  0.21969415  0.85739143     0.89000
C487        C  0.16989621  0.20633194  0.88540999    -0.51200
C488        C  0.19320887  0.23132765  0.89968488     0.12000
C489        C  0.18465008  0.26709848  0.88570443     0.22900
C490        C  0.11608024  0.24752922  0.87523933    -0.51900
C491        C  0.13909303  0.27239260  0.88998954     0.12100
C492        C  0.16824506  0.23851766  0.83137697    -0.51500
C493        C  0.19154010  0.26299254  0.84655701     0.12600
H494        H  0.17424957  0.17942539  0.89093496     0.17100
H495        H  0.20342827  0.28730203  0.89788486     0.02900
H496        H  0.08350695  0.24747941  0.87634406     0.17500
H497        H  0.17143548  0.23109271  0.80416565     0.17200
C498        C  0.14195618  0.22183026  0.64516928     0.89000
C499        C  0.16946308  0.24251929  0.66944318    -0.51200
C500        C  0.19247465  0.26577589  0.65215388     0.12000
C501        C  0.18571253  0.26651723  0.61280599     0.22900
C502        C  0.11700830  0.24832590  0.62534253    -0.51900
C503        C  0.14030296  0.27180808  0.60856556     0.12100
C504        C  0.17030210  0.20615865  0.61817914    -0.51500
C505        C  0.19349349  0.22961849  0.60169179     0.12600
H506        H  0.17216530  0.23784035  0.69732393     0.17100
H507        H  0.20459413  0.28555025  0.59890924     0.02900
H508        H  0.08448917  0.24872976  0.62489977     0.17500
H509        H  0.17392119  0.17883151  0.61440307     0.17200
C510        C  0.98543232  0.49560219  0.62486329     0.00100
O511        O  0.38993382  0.38200904  0.70791913    -0.79300
C512        C  0.28721867  0.30212310  0.79449425     1.00100
O513        O  0.27924708  0.32871074  0.77767734    -0.68400
O514        O  0.32353802  0.38189657  0.79199935    -0.72000
Al515      Al  0.30960734  0.35946654  0.75031197     1.49000
C516        C  0.35496695  0.39901231  0.79668983     0.95400
O517        O  0.42064639  0.33448204  0.79084793    -0.78200
O518        O  0.38384256  0.28574000  0.70833203    -0.71700
Al519      Al  0.40244670  0.35671581  0.74927308     1.90100
O520        O  0.39833819  0.28288734  0.78018740    -0.70800
O521        O  0.30637828  0.28648976  0.72072650    -0.70700
O522        O  0.32041568  0.28712919  0.79092400    -0.76300
O523        O  0.29012326  0.33959664  0.70874139    -0.74500
O524        O  0.35498500  0.33515653  0.74983367    -1.10700
O525        O  0.32863258  0.39612406  0.72262641    -0.69900
C526        C  0.35907725  0.40017225  0.70379817     1.00900
C527        C  0.41909081  0.30318301  0.79835695     0.97300
Al528      Al  0.35280487  0.28954142  0.74991083     1.55600
O529        O  0.38614529  0.39377697  0.77882424    -0.74500
C530        C  0.28557505  0.30802907  0.70426744     1.01400
C531        C  0.41633166  0.30034233  0.70078573     0.96300
O532        O  0.42914987  0.32484359  0.71896939    -0.79800
O533        O  0.39646093  0.12684927  0.54250703    -0.79300
C534        C  0.29139837  0.20338466  0.95489848     1.00100
O535        O  0.28405953  0.17700993  0.97229322    -0.68400
O536        O  0.32955195  0.12440270  0.95889578    -0.72000
Al537      Al  0.31510887  0.14728859  0.50016772     1.49000
C538        C  0.36145493  0.10785417  0.95440425     0.95400
O539        O  0.42449826  0.17413805  0.95869429    -0.78200
O540        O  0.38617200  0.22256354  0.54118104    -0.71700
Al541      Al  0.40772588  0.15200054  0.00072381     1.90100
O542        O  0.40155944  0.22541175  0.96994905    -0.70800
O543        O  0.30921836  0.22070946  0.52801814    -0.70700
O544        O  0.32412742  0.21916987  0.95819054    -0.76300
O545        O  0.29532532  0.16748837  0.54140575    -0.74500
O546        O  0.35961698  0.17245843  0.50012880    -1.10700
O547        O  0.33530032  0.11164248  0.52839737    -0.69900
C548        C  0.36603609  0.10823354  0.54699599     1.00900
C549        C  0.42215804  0.20544317  0.95138912     0.97300
Al550      Al  0.35598224  0.21801709  0.49950812     1.55600
O551        O  0.39257996  0.11410777  0.97193081    -0.74500
C552        C  0.28944591  0.19899223  0.54504782     1.01400
C553        C  0.41927592  0.20901166  0.54861806     0.96300
O554        O  0.43335174  0.18503831  0.53036540    -0.79800
C555        C  0.32892367  0.02903457  0.89517809     0.89000
C556        C  0.30141845  0.00834123  0.91944513    -0.51200
C557        C  0.27840510  0.48508924  0.90216399     0.12000
C558        C  0.28516254  0.48434430  0.86281432     0.22900
C559        C  0.35387340  0.00253216  0.87535058    -0.51900
C560        C  0.33057986  0.47905414  0.85857574     0.12100
C561        C  0.30057990  0.04469020  0.86818672    -0.51500
C562        C  0.27738650  0.02124949  0.85169928     0.12600
H563        H  0.29871519  0.01302396  0.94733949     0.17100
H564        H  0.26627797  0.46531237  0.84891635     0.02900
H565        H  0.38638842  0.00212688  0.87490701     0.17500
H566        H  0.29695793  0.07204507  0.86440649     0.17200
C567        C  0.32997597  0.03117842  0.60739997     0.89000
C568        C  0.30097856  0.04453130  0.63541019    -0.51200
C569        C  0.27766547  0.01954710  0.64968964     0.12000
C570        C  0.28622012  0.48376940  0.63570795     0.22900
C571        C  0.35479116  0.00334237  0.62524211    -0.51900
C572        C  0.33178420  0.47848063  0.63999344     0.12100
C573        C  0.30262354  0.01235872  0.58136364    -0.51500
C574        C  0.27933111  0.48787668  0.59656815     0.12600
H575        H  0.29662396  0.07145427  0.64093909     0.17100
H576        H  0.26745168  0.46357523  0.64788765     0.02900
H577        H  0.38736605  0.00339305  0.62634847     0.17500
H578        H  0.29943474  0.01977411  0.55418684     0.17200
C579        C  0.48544947  0.25526037  0.87486426     0.00100
C580        C  0.64192245  0.02904889  0.85455566     0.89000
C581        C  0.66943317  0.00836123  0.83029141    -0.51200
C582        C  0.69246073  0.48511477  0.84756642     0.12000
C583        C  0.68570867  0.48437324  0.88691861     0.22900
C584        C  0.61699994  0.00254793  0.87439191    -0.51900
C585        C  0.64031072  0.47907262  0.89116641     0.12100
C586        C  0.67026983  0.04472736  0.88154181    -0.51500
C587        C  0.69347762  0.02127851  0.89802689     0.12600
H588        H  0.67212400  0.01304108  0.80238940     0.17100
H589        H  0.70460985  0.46534536  0.90081510     0.02900
H590        H  0.58446868  0.00213377  0.87483627     0.17500
H591        H  0.67387600  0.07206087  0.88531293     0.17200
O592        O  0.57440378  0.12686693  0.70720175    -0.79300
C593        C  0.67948892  0.20335829  0.79481421     1.00100
O594        O  0.68681922  0.17697710  0.77742232    -0.68400
O595        O  0.64130894  0.12438581  0.79081617    -0.72000
Al596      Al  0.65576352  0.14726810  0.74954531     1.49000
C597        C  0.60940006  0.10785027  0.79530659     0.95400
O598        O  0.54639054  0.17414927  0.79102204    -0.78200
O599        O  0.58472479  0.22256264  0.70852813    -0.71700
Al600      Al  0.56314822  0.15201254  0.74898895     1.90100
O601        O  0.56933355  0.22541816  0.77976169    -0.70800
O602        O  0.66167669  0.22068737  0.72169392    -0.70700
O603        O  0.64676420  0.21915336  0.79151941    -0.76300
O604        O  0.67555903  0.16746200  0.70830935    -0.74500
O605        O  0.61126402  0.17245330  0.74958340    -1.10700
O606        O  0.63555881  0.11163226  0.72131066    -0.69900
C607        C  0.60482312  0.10824085  0.70270810     1.00900
C608        C  0.54873726  0.20545341  0.79832697     0.97300
Al609      Al  0.61491058  0.21801022  0.75020259     1.55600
O610        O  0.57828083  0.11411043  0.77777531    -0.74500
C611        C  0.68144682  0.19896556  0.70466648     1.01400
C612        C  0.55161540  0.20902333  0.70109414     0.96300
O613        O  0.53752899  0.18506149  0.71935603    -0.79800
C614        C  0.64087715  0.03120191  0.64228691     0.89000
C615        C  0.66987395  0.04456658  0.61427461    -0.51200
C616        C  0.69319700  0.01957380  0.60000202     0.12000
C617        C  0.68464874  0.48380113  0.61398390     0.22900
C618        C  0.61606869  0.00336341  0.62444147    -0.51900
C619        C  0.63909818  0.47850011  0.60969411     0.12100
C620        C  0.66823152  0.01238603  0.66831865    -0.51500
C621        C  0.69153568  0.48790757  0.65312825     0.12600
H622        H  0.67421996  0.07147344  0.60874987     0.17100
H623        H  0.70343502  0.46359970  0.60180643     0.02900
H624        H  0.58350238  0.00340888  0.62333466     0.17500
H625        H  0.67141432  0.01980437  0.69550626     0.17200
O626        O  0.58097784  0.38200953  0.54179554    -0.79300
C627        C  0.68367939  0.30210621  0.95521608     1.00100
O628        O  0.69165574  0.32869382  0.97203222    -0.68400
O629        O  0.64736761  0.38188802  0.95771289    -0.72000
Al630      Al  0.66129949  0.35945455  0.49939910     1.49000
C631        C  0.61593981  0.39901073  0.95302682     0.95400
O632        O  0.55025771  0.33448662  0.95886935    -0.78200
O633        O  0.58706475  0.28573908  0.54138625    -0.71700
Al634      Al  0.56846078  0.35671806  0.00044330     1.90100
O635        O  0.57256163  0.28288840  0.96953405    -0.71200
O636        O  0.66452681  0.28647727  0.52898670    -0.70700
O637        O  0.65048303  0.28711868  0.95879082    -0.76300
O638        O  0.68078547  0.33958187  0.54096795    -0.74500
O639        O  0.61592090  0.33515141  0.49988102    -1.10700
O640        O  0.64227908  0.39611542  0.52708533    -0.69900
C641        C  0.61183136  0.40017024  0.54591390     1.00900
C642        C  0.55180828  0.30318666  0.95136442     0.97300
Al643      Al  0.61809789  0.28953596  0.49980581     1.55600
O644        O  0.58476199  0.39377697  0.97089321    -0.74500
C645        C  0.68533079  0.30801410  0.54544441     1.01400
C646        C  0.55457128  0.30034571  0.54893065     0.96300
O647        O  0.54175787  0.32484883  0.53074717    -0.79800
C648        C  0.48544720  0.25563993  0.62485129     0.00100
C649        C  0.51133212  0.27641348  0.60184842    -0.10700
C650        C  0.53139226  0.28855125  0.57850959    -0.12300
C651        C  0.61348406  0.42661897  0.57176129    -0.10700
C652        C  0.62250836  0.45017861  0.59043542    -0.12300
C653        C  0.52927708  0.22156745  0.67157186    -0.10700
C654        C  0.51032801  0.23457557  0.64815318    -0.12300
C655        C  0.60598947  0.08197895  0.67669104    -0.10700
C656        C  0.61753414  0.05854769  0.65892177    -0.12300
C657        C  0.61937892  0.05536016  0.83610866    -0.10700
C658        C  0.61006763  0.07963965  0.81880350    -0.12300
C659        C  0.62441265  0.45092760  0.91071797    -0.10700
C660        C  0.61710209  0.42664526  0.92877268    -0.12300
C661        C  0.51017752  0.23374013  0.85161780    -0.10700
C662        C  0.52772551  0.21915630  0.82822624    -0.12300
C663        C  0.51088852  0.27644633  0.89814541    -0.10700
C664        C  0.52960020  0.29004857  0.92161534    -0.12300
C665        C  0.44317943  0.21914414  0.92149405    -0.10700
C666        C  0.46072836  0.23373308  0.89810795    -0.12300
C667        C  0.46056912  0.23457279  0.60154986    -0.10700
C668        C  0.44162109  0.22155956  0.57813673    -0.12300
C669        C  0.36077231  0.07963723  0.93091732    -0.10700
C670        C  0.35145759  0.05534985  0.91362309    -0.12300
C671        C  0.36486095  0.08196041  0.57300383    -0.10700
C672        C  0.35331177  0.05852571  0.59076232    -0.12300
C673        C  0.43950712  0.28854988  0.67120003    -0.10700
C674        C  0.45955962  0.27641367  0.64785656    -0.12300
C675        C  0.46000359  0.27644450  0.85158415    -0.10700
C676        C  0.44129283  0.29004477  0.82811058    -0.12300
C677        C  0.34648068  0.45091441  0.83901575    -0.10700
C678        C  0.35380400  0.42664153  0.82095310    -0.12300
C679        C  0.34838101  0.45016408  0.65926094    -0.10700
C680        C  0.35742106  0.42661392  0.67794133    -0.12300
C681        C  0.22516087  0.28361417  0.66829435    -0.10700
C682        C  0.25367254  0.29604745  0.68265477    -0.12300
C683        C  0.25727940  0.21040497  0.56648437    -0.10700
C684        C  0.22801135  0.21973202  0.58196138    -0.12300
C685        C  0.26007109  0.21609157  0.93307768    -0.10700
C686        C  0.22958924  0.22368847  0.91821600    -0.12300
C687        C  0.25610030  0.28791968  0.81571332    -0.10700
C688        C  0.22643350  0.27707513  0.82978391    -0.12300
C689        C  0.24286636  0.03113145  0.83196804    -0.10700
C690        C  0.21360009  0.04046167  0.81649172    -0.12300
C691        C  0.21080550  0.03477781  0.68308343    -0.10700
C692        C  0.24128733  0.02718131  0.66822071    -0.12300
C693        C  0.01015500  0.01712908  0.64810680    -0.10700
C694        C  0.02770250  0.03171960  0.67149218    -0.12300
C695        C  0.11010815  0.17122667  0.68091215    -0.10700
C696        C  0.11942516  0.19551136  0.66361601    -0.12300
C697        C  0.11755945  0.19234501  0.84075949    -0.10700
C698        C  0.10601290  0.16891048  0.82299978    -0.12300
C699        C  0.21477158  0.46294575  0.56571837    -0.10700
C700        C  0.24443888  0.47379379  0.57978756    -0.12300
C701        C  0.21720330  0.45482254  0.93266187    -0.10700
C702        C  0.24571499  0.46725254  0.91830239    -0.12300
C703        C  0.02958384  0.46081843  0.57810790    -0.10700
C704        C  0.01087453  0.47441824  0.60158314    -0.12300
C705        C  0.12249326  0.30070665  0.90925592    -0.10700
C706        C  0.11345357  0.32425686  0.92793764    -0.12300
C707        C  0.11707047  0.32422198  0.57094828    -0.10700
C708        C  0.12439200  0.29994686  0.58900880    -0.12300
C709        C  0.02925577  0.02931483  0.82813653    -0.10700
C710        C  0.01030707  0.01630439  0.85154985    -0.12300
C711        C  0.01131511  0.47446290  0.89785565    -0.10700
C712        C  0.03136821  0.46232293  0.92119935    -0.12300
C713        C  0.94315556  0.03171062  0.57822759    -0.10700
C714        C  0.96070380  0.01712429  0.60161826    -0.12300
C715        C  0.94160286  0.02931016  0.92157266    -0.10700
C716        C  0.96054996  0.01630344  0.89815368    -0.12300
C717        C  0.75726425  0.04050443  0.93322822    -0.10700
C718        C  0.72799526  0.03117430  0.91775288    -0.12300
C719        C  0.72957740  0.02721540  0.58147982    -0.10700
C720        C  0.76006350  0.03481321  0.56662424    -0.12300
C721        C  0.94128168  0.46081799  0.67161444    -0.10700
C722        C  0.95999277  0.47441721  0.64814543    -0.12300
C723        C  0.93948413  0.46232590  0.82850958    -0.10700
C724        C  0.95954191  0.47446571  0.85184849    -0.12300
C725        C  0.75365193  0.45484438  0.81705348    -0.10700
C726        C  0.72514530  0.46727701  0.83142276    -0.12300
C727        C  0.72642253  0.47382288  0.66991048    -0.10700
C728        C  0.75608767  0.46297075  0.68398603    -0.12300
C729        C  0.71081989  0.21605974  0.81662791    -0.10700
C730        C  0.74130532  0.22366090  0.83148478    -0.12300
C731        C  0.74445595  0.27704934  0.91991841    -0.10700
C732        C  0.71479246  0.28789883  0.93399381    -0.12300
C733        C  0.84836783  0.30070162  0.84044367    -0.10700
C734        C  0.85739363  0.32425872  0.82176839    -0.12300
C735        C  0.85335258  0.19233219  0.90892908    -0.10700
C736        C  0.86489621  0.16889954  0.92669634    -0.12300
C737        C  0.74573829  0.28359418  0.58142752    -0.10700
C738        C  0.71722940  0.29602879  0.56706084    -0.12300
C739        C  0.74288744  0.21969671  0.66775641    -0.10700
C740        C  0.71361734  0.21036864  0.68323183    -0.12300
C741        C  0.84647112  0.29993943  0.66072491    -0.10700
C742        C  0.85378180  0.32422067  0.67877668    -0.12300
C743        C  0.86081128  0.17122868  0.56880756    -0.10700
C744        C  0.85150072  0.19550816  0.58611388    -0.12300
C745        C  0.82895618  0.72181918  0.10456479     0.89000
C746        C  0.80144613  0.74250483  0.08028211    -0.51200
C747        C  0.77842031  0.76575608  0.09757735     0.12000
C748        C  0.78517137  0.76649032  0.13692213     0.22900
C749        C  0.85388378  0.74831561  0.12439745    -0.51900
C750        C  0.83057754  0.77179244  0.14117360     0.12100
C751        C  0.80060978  0.70613596  0.13154534    -0.51500
C752        C  0.77740309  0.72959058  0.14803194     0.12600
H753        H  0.79875535  0.73783404  0.05240913     0.17100
H754        H  0.76627346  0.78552102  0.15081870     0.02900
H755        H  0.88640914  0.74872858  0.12484443     0.17500
H756        H  0.79700266  0.67880847  0.13531766     0.17200
C757        C  0.83000429  0.71967553  0.39229562     0.89000
C758        C  0.80100910  0.70631730  0.36428155    -0.51200
C759        C  0.77768383  0.73130272  0.35000856     0.12000
C760        C  0.78622888  0.76707724  0.36399287     0.22900
C761        C  0.85481137  0.74751822  0.37445099    -0.51900
C762        C  0.83178118  0.77237887  0.35970460     0.12100
C763        C  0.80265085  0.73849081  0.41832271    -0.51500
C764        C  0.77934494  0.76296617  0.40313678     0.12600
H765        H  0.79666403  0.67940086  0.35875286     0.17100
H766        H  0.76744246  0.78727667  0.35181489     0.02900
H767        H  0.88737620  0.74747384  0.37334421     0.17500
H768        H  0.79947054  0.73106714  0.44551961     0.17200
O769        O  0.88990142  0.86886568  0.29180132    -0.79300
C770        C  0.78720006  0.94876216  0.20520866     1.00100
O771        O  0.77922444  0.92217639  0.22202516    -0.68400
O772        O  0.82351271  0.86898152  0.20771221    -0.72000
Al773      Al  0.80958020  0.89141645  0.24939633     1.49000
C774        C  0.85494437  0.85185775  0.20303134     0.95400
O775        O  0.92062329  0.91638294  0.20887257    -0.78200
O776        O  0.88381343  0.96513487  0.29138180    -0.71700
Al777      Al  0.90241920  0.89415389  0.25044731     1.90100
O778        O  0.89831772  0.96798160  0.21953019    -0.70800
O779        O  0.80635164  0.96439499  0.27897861    -0.70700
O780        O  0.82039726  0.96375057  0.20878290    -0.76300
O781        O  0.79009367  0.91129063  0.29096262    -0.74500
O782        O  0.85495847  0.91571995  0.24987942    -1.10700
O783        O  0.82860157  0.85475715  0.27708709    -0.69900
C784        C  0.85904588  0.85070504  0.29591770     1.00900
C785        C  0.91907215  0.94768052  0.20136463     0.97300
Al786      Al  0.85278068  0.96133535  0.24980012     1.55600
O787        O  0.88611759  0.85709284  0.22089879    -0.74500
C788        C  0.78554809  0.94285962  0.29543749     1.01400
C789        C  0.91630527  0.95052993  0.29893008     0.96300
O790        O  0.92912090  0.92602472  0.28074968    -0.79800
O791        O  0.89648082  0.62400874  0.45720704    -0.79300
C792        C  0.79139294  0.54751459  0.04481096     1.00100
O793        O  0.78406328  0.57389447  0.02741843    -0.68400
O794        O  0.82957140  0.62648623  0.04081453    -0.72000
Al795      Al  0.81511791  0.60360453  0.49954291     1.49000
C796        C  0.86147996  0.64302112  0.04531012     0.95400
O797        O  0.92449046  0.57671944  0.04102701    -0.78200
O798        O  0.88615596  0.52831272  0.45852751    -0.71700
Al799      Al  0.90773384  0.59886045  0.99899372     1.90100
O800        O  0.90154873  0.52545181  0.02976117    -0.70800
O801        O  0.80920432  0.53018558  0.47169218    -0.70700
O802        O  0.82411904  0.53171815  0.04151761    -0.76300
O803        O  0.79532254  0.58341071  0.45830543    -0.74500
O804        O  0.85961772  0.57841952  0.49958365    -1.10700
O805        O  0.83532403  0.63924079  0.47130932    -0.69900
C806        C  0.86605928  0.64263433  0.45271217     1.00900
C807        C  0.92214393  0.54541779  0.04832817     0.97300
Al808      Al  0.85597103  0.53286268  0.50020153     1.55600
O809        O  0.89260128  0.63676033  0.02778112    -0.74500
C810        C  0.78943439  0.55190810  0.45466344     1.01400
C811        C  0.91926491  0.54185254  0.45109623     0.96300
O812        O  0.93335255  0.56581256  0.46935958    -0.79800
C813        C  0.98542890  0.99523860  0.37485138     0.00100
O814        O  0.08094082  0.86886051  0.45791520    -0.79300
C815        C  0.18365445  0.94874207  0.04449928     1.00100
O816        O  0.19162590  0.92215542  0.02768117    -0.68400
O817        O  0.14733581  0.86896919  0.04199935    -0.72000
Al818      Al  0.16126693  0.89140093  0.50031322     1.49000
C819        C  0.11590446  0.85185271  0.04668618     0.95400
O820        O  0.05022712  0.91638363  0.04084427    -0.78200
O821        O  0.08703259  0.96512907  0.45833262    -0.71700
Al822      Al  0.06842684  0.89415147  0.99926904     1.90100
O823        O  0.07253490  0.96797875  0.03018629    -0.70800
O824        O  0.16449736  0.96437954  0.47073125    -0.70700
O825        O  0.15045587  0.96373522  0.04092784    -0.76300
O826        O  0.18075104  0.91127343  0.45874408    -0.74500
O827        O  0.11588936  0.91571080  0.49983329    -1.10700
O828        O  0.14224209  0.85474474  0.47262586    -0.69900
C829        C  0.11179765  0.85069649  0.45379470     1.00900
C830        C  0.05178313  0.94768064  0.04835390     0.97300
Al831      Al  0.11806977  0.96132584  0.49991261     1.55600
O832        O  0.08472894  0.85708873  0.02881973    -0.74500
C833        C  0.18529970  0.94283978  0.45427255     1.01400
C834        C  0.05454456  0.95052905  0.45078360     0.96300
O835        O  0.04172484  0.92602493  0.46896629    -0.79800
O836        O  0.07441386  0.62402089  0.29250195    -0.79300
C837        C  0.17947875  0.54748263  0.20490407     1.00100
O838        O  0.18681758  0.57385813  0.22229983    -0.68400
O839        O  0.14132740  0.62646472  0.20889809    -0.72000
Al840      Al  0.15576918  0.60357916  0.25017130     1.49000
C841        C  0.10942419  0.64301210  0.20440140     0.95400
O842        O  0.04638215  0.57672796  0.20868990    -0.78200
O843        O  0.08470599  0.52830758  0.29118415    -0.71700
Al844      Al  0.06315146  0.59886757  0.25071927     1.90100
O845        O  0.06931800  0.52545465  0.21995285    -0.70800
O846        O  0.16165962  0.53015951  0.27802398    -0.70700
O847        O  0.14674946  0.53169764  0.20819648    -0.76300
O848        O  0.17555229  0.58338039  0.29141130    -0.74500
O849        O  0.11126096  0.57840990  0.25012999    -1.10700
O850        O  0.13557625  0.63922567  0.27839920    -0.69900
C851        C  0.10483972  0.64263557  0.29699273     1.00900
C852        C  0.04872145  0.54542242  0.20138816     0.97300
Al853      Al  0.11489514  0.53285109  0.24951224     1.55600
O854        O  0.07829808  0.63675878  0.22192522    -0.74500
C855        C  0.18143111  0.55187536  0.29505309     1.01400
C856        C  0.05160120  0.54185953  0.29861801     0.96300
O857        O  0.03752541  0.56583114  0.28036066    -0.79800
C858        C  0.14089506  0.71969278  0.35739490     0.89000
C859        C  0.16989739  0.70633590  0.38540918    -0.51200
C860        C  0.19320835  0.73132464  0.39968463     0.12000
C861        C  0.18465386  0.76710253  0.38570422     0.22900
C862        C  0.11608186  0.74752978  0.37523935    -0.51900
C863        C  0.13909108  0.77239128  0.38998878     0.12100
C864        C  0.16824630  0.73851473  0.33136610    -0.51500
C865        C  0.19153923  0.76299318  0.34655986     0.12600
H866        H  0.17425165  0.67942306  0.39093574     0.17100
H867        H  0.20342107  0.78729731  0.39788012     0.02900
H868        H  0.08350872  0.74747834  0.37634468     0.17500
H869        H  0.17143238  0.73109434  0.30417965     0.17200
C870        C  0.14195507  0.72183098  0.14517075     0.89000
C871        C  0.16946168  0.74252109  0.16943264    -0.51200
C872        C  0.19247291  0.76577458  0.15215655     0.12000
C873        C  0.18571194  0.76651754  0.11280324     0.22900
C874        C  0.11700774  0.74832621  0.12534060    -0.51900
C875        C  0.14030176  0.77180790  0.10856474     0.12100
C876        C  0.17030164  0.70615611  0.11817707    -0.51500
C877        C  0.19349267  0.72961999  0.10169096     0.12600
H878        H  0.17216534  0.73783824  0.19733194     0.17100
H879        H  0.20459298  0.78555117  0.09890835     0.02900
H880        H  0.08448762  0.74873018  0.12489852     0.17500
H881        H  0.17391964  0.67883518  0.11440374     0.17200
C882        C  0.98543178  0.99560190  0.12486415     0.00100
O883        O  0.38993208  0.88200915  0.20791883    -0.79300
C884        C  0.28721740  0.80212317  0.29449419     1.00100
O885        O  0.27924663  0.82871070  0.27767678    -0.68400
O886        O  0.32353602  0.88189641  0.29199866    -0.72000
Al887      Al  0.30960658  0.85946648  0.25031133     1.49000
C888        C  0.35496737  0.89901292  0.29668876     0.95400
O889        O  0.42064542  0.83448162  0.29084770    -0.78200
O890        O  0.38384200  0.78573991  0.20833148    -0.71700
Al891      Al  0.40244595  0.85671580  0.24927254     1.90100
O892        O  0.39833748  0.78288706  0.28018688    -0.70800
O893        O  0.30637704  0.78649056  0.22072552    -0.70700
O894        O  0.32041544  0.78712907  0.29092333    -0.76300
O895        O  0.29012219  0.83959740  0.20874068    -0.74500
O896        O  0.35498410  0.83515650  0.24983313    -1.10700
O897        O  0.32863068  0.89612385  0.22262614    -0.69900
C898        C  0.35907799  0.90017171  0.20379699     1.00900
C899        C  0.41908961  0.80318406  0.29835595     0.97300
Al900      Al  0.35280423  0.78954137  0.24991033     1.55600
O901        O  0.38614334  0.89377705  0.27882385    -0.74500
C902        C  0.28557488  0.80802760  0.20426747     1.01400
C903        C  0.41633092  0.80034229  0.20078536     0.96300
O904        O  0.42914921  0.82484355  0.21896905    -0.79800
O905        O  0.39645952  0.62684933  0.04250675    -0.79300
C906        C  0.29139795  0.70338504  0.45489785     1.00100
O907        O  0.28405945  0.67700886  0.47229400    -0.68400
O908        O  0.32955168  0.62440244  0.45889581    -0.72000
Al909      Al  0.31510841  0.64728890  0.00016741     1.49000
C910        C  0.36145629  0.60785408  0.45440451     0.95400
O911        O  0.42449811  0.67413779  0.45869423    -0.78200
O912        O  0.38617232  0.72256357  0.04118080    -0.71700
Al913      Al  0.40772616  0.65200044  0.50072373     1.90100
O914        O  0.40155940  0.72541146  0.46994927    -0.70800
O915        O  0.30921847  0.72071001  0.02801766    -0.70700
O916        O  0.32412708  0.71916917  0.45819093    -0.76300
O917        O  0.29532501  0.66748896  0.04140532    -0.74500
O918        O  0.35961656  0.67245864  0.00012859    -1.10700
O919        O  0.33529882  0.61164285  0.02839657    -0.69900
C920        C  0.36603615  0.60823359  0.04699644     1.00900
C921        C  0.42215774  0.70544352  0.45138930     0.97300
Al922      Al  0.35598228  0.71801733  0.99950782     1.55600
O923        O  0.39257978  0.61410766  0.47193029    -0.74500
C924        C  0.28944548  0.69899233  0.04504755     1.01400
C925        C  0.41927563  0.70901215  0.04861825     0.96300
O926        O  0.43335174  0.68503796  0.03036523    -0.79800
C927        C  0.32892860  0.52903096  0.39517782     0.89000
C928        C  0.30141739  0.50834206  0.41944157    -0.51200
C929        C  0.27840574  0.98508959  0.40216366     0.12000
C930        C  0.28516512  0.98434354  0.36281311     0.22900
C931        C  0.35385466  0.50253507  0.37534988    -0.51900
C932        C  0.33057251  0.97905345  0.35857385     0.12100
C933        C  0.30057683  0.54470562  0.36818386    -0.51500
C934        C  0.27738494  0.52124350  0.35169866     0.12600
H935        H  0.29871561  0.51302437  0.44733993     0.17100
H936        H  0.26627935  0.96531283  0.34891788     0.02900
H937        H  0.38640824  0.50213127  0.37490797     0.17500
H938        H  0.29695929  0.57202998  0.36440873     0.17200
C939        C  0.32997267  0.53117991  0.10739659     0.89000
C940        C  0.30097786  0.54453169  0.13541280    -0.51200
C941        C  0.27766657  0.51954797  0.14968942     0.12000
C942        C  0.28621981  0.98376871  0.13571026     0.22900
C943        C  0.35480465  0.50334138  0.12524414    -0.51900
C944        C  0.33178263  0.97848023  0.13999356     0.12100
C945        C  0.30262359  0.51235427  0.08137591    -0.51500
C946        C  0.27933054  0.98787801  0.09656424     0.12600
H947        H  0.29662454  0.57145094  0.14093965     0.17100
H948        H  0.26745122  0.96357234  0.14788882     0.02900
H949        H  0.38735021  0.50339314  0.12634854     0.17500
H950        H  0.29943264  0.51977652  0.05417783     0.17200
C951        C  0.48544868  0.75526066  0.37486436     0.00100
C952        C  0.64192095  0.52904909  0.35455961     0.89000
C953        C  0.66943209  0.50836635  0.33027545    -0.51200
C954        C  0.69246266  0.98511306  0.34757143     0.12000
C955        C  0.68570614  0.98438120  0.38691284     0.22900
C956        C  0.61700021  0.50255038  0.37438928    -0.51900
C957        C  0.64030630  0.97907300  0.39116599     0.12100
C958        C  0.67026790  0.54472858  0.38153990    -0.51500
C959        C  0.69347769  0.52127815  0.39802734     0.12600
H960        H  0.67212095  0.51304029  0.30240429     0.17100
H961        H  0.70461401  0.96534110  0.40081710     0.02900
H962        H  0.58446474  0.50213759  0.37483480     0.17500
H963        H  0.67387464  0.57206218  0.38531342     0.17200
O964        O  0.57440361  0.62686653  0.20720221    -0.79300
C965        C  0.67948794  0.70335777  0.29481399     1.00100
O966        O  0.68681802  0.67697728  0.27742283    -0.68400
O967        O  0.64130830  0.62438644  0.29081681    -0.72000
Al968      Al  0.65576258  0.64726778  0.24954593     1.49000
C969        C  0.60939825  0.60785010  0.29530756     0.95400
O970        O  0.54638960  0.67415041  0.29102211    -0.78200
O971        O  0.58472389  0.72256228  0.20852780    -0.71700
Al972      Al  0.56314737  0.65201252  0.24898913     1.90100
O973        O  0.56933311  0.72541903  0.27976136    -0.70800
O974        O  0.66167651  0.72068726  0.22169364    -0.70700
O975        O  0.64676294  0.71915357  0.29151935    -0.76300
O976        O  0.67555896  0.66746213  0.20830952    -0.74500
O977        O  0.61126330  0.67245329  0.24958358    -1.10700
O978        O  0.63555848  0.61163180  0.22131176    -0.69900
C979        C  0.60482193  0.60824062  0.20270851     1.00900
C980        C  0.54873595  0.70545273  0.29832703     0.97300
Al981      Al  0.61490985  0.71801004  0.25020255     1.55600
O982        O  0.57828007  0.61411085  0.27777565    -0.74500
C983        C  0.68144525  0.69896402  0.20466753     1.01400
C984        C  0.55161550  0.70902317  0.20109446     0.96300
O985        O  0.53752812  0.68506133  0.21935576    -0.79800
C986        C  0.64087867  0.53120258  0.14229016     0.89000
C987        C  0.66987281  0.54456369  0.11427543    -0.51200
C988        C  0.69319705  0.51957492  0.10000196     0.12000
C989        C  0.68465155  0.98379828  0.11398243     0.22900
C990        C  0.61606678  0.50336304  0.12444135    -0.51900
C991        C  0.63909568  0.97850208  0.10969516     0.12100
C992        C  0.66823118  0.51238252  0.16831039    -0.51500
C993        C  0.69153314  0.98790993  0.15313035     0.12600
H994        H  0.67421887  0.57147725  0.10874924     0.17100
H995        H  0.70342944  0.96360404  0.10180928     0.02900
H996        H  0.58350387  0.50340828  0.12333489     0.17500
H997        H  0.67141673  0.51980488  0.19551839     0.17200
O998        O  0.58097815  0.88201007  0.04179564    -0.79300
C999        C  0.68367877  0.80210643  0.45521611     1.00100
O1000       O  0.69165511  0.82869335  0.47203176    -0.68400
O1001       O  0.64736721  0.88188806  0.45771227    -0.72000
Al1002     Al  0.66130005  0.85945485  0.99939932     1.49000
C1003       C  0.61593862  0.89900977  0.45302778     0.95400
O1004       O  0.55025723  0.83448565  0.45886935    -0.78200
O1005       O  0.58706405  0.78574009  0.04138658    -0.71700
Al1006     Al  0.56846029  0.85671789  0.50044336     1.90100
O1007       O  0.57256154  0.78288749  0.46953415    -0.71200
O1008       O  0.66452751  0.78647732  0.02898714    -0.70700
O1009       O  0.65048241  0.78711826  0.45879055    -0.76300
O1010       O  0.68078610  0.83958169  0.04096850    -0.74500
O1011       O  0.61592141  0.83515176  0.99988128    -1.10700
O1012       O  0.64227944  0.89611580  0.02708576    -0.69900
C1013       C  0.61183169  0.90017025  0.04591361     1.00900
C1014       C  0.55180707  0.80318775  0.45136402     0.97300
Al1015     Al  0.61809849  0.78953623  0.99980609     1.55600
O1016       O  0.58476210  0.89377723  0.47089264    -0.74500
C1017       C  0.68533055  0.80801495  0.04544418     1.01400
C1018       C  0.55457272  0.80034483  0.04893117     0.96300
O1019       O  0.54175739  0.82484989  0.03074686    -0.79800
C1020       C  0.48544703  0.75564016  0.12485090     0.00100
C1021       C  0.51133208  0.77641362  0.10184849    -0.10700
C1022       C  0.53139205  0.78855175  0.07850954    -0.12300
C1023       C  0.61348425  0.92661966  0.07176162    -0.10700
C1024       C  0.62250899  0.95017796  0.09043477    -0.12300
C1025       C  0.52927624  0.72156764  0.17157119    -0.10700
C1026       C  0.51032817  0.73457537  0.14815338    -0.12300
C1027       C  0.60598943  0.58197862  0.17669166    -0.10700
C1028       C  0.61753362  0.55854717  0.15892185    -0.12300
C1029       C  0.61937818  0.55536091  0.33610798    -0.10700
C1030       C  0.61006605  0.57964118  0.31880377    -0.12300
C1031       C  0.62441355  0.95092761  0.41071788    -0.10700
C1032       C  0.61710219  0.92664724  0.42877093    -0.12300
C1033       C  0.51017660  0.73374053  0.35161761    -0.10700
C1034       C  0.52772461  0.71915714  0.32822626    -0.12300
C1035       C  0.51088763  0.77644664  0.39814512    -0.10700
C1036       C  0.52959960  0.79004831  0.42161540    -0.12300
C1037       C  0.44317887  0.71914418  0.42149415    -0.10700
C1038       C  0.46072760  0.73373347  0.39810778    -0.12300
C1039       C  0.46056928  0.73457315  0.10154979    -0.10700
C1040       C  0.44162113  0.72155952  0.07813638    -0.12300
C1041       C  0.36077267  0.57963677  0.43091663    -0.10700
C1042       C  0.35145599  0.55535188  0.41362239    -0.12300
C1043       C  0.36485935  0.58196086  0.07300303    -0.10700
C1044       C  0.35331129  0.55852496  0.09076370    -0.12300
C1045       C  0.43950683  0.78854974  0.17119962    -0.10700
C1046       C  0.45955943  0.77641384  0.14785642    -0.12300
C1047       C  0.46000223  0.77644522  0.35158337    -0.10700
C1048       C  0.44129231  0.79004446  0.32811096    -0.12300
C1049       C  0.34648248  0.95091522  0.33901489    -0.10700
C1050       C  0.35380263  0.92664148  0.32095182    -0.12300
C1051       C  0.34838055  0.95016353  0.15926052    -0.10700
C1052       C  0.35742014  0.92661335  0.17794092    -0.12300
C1053       C  0.22516021  0.78361429  0.16829286    -0.10700
C1054       C  0.25367104  0.79604732  0.18265433    -0.12300
C1055       C  0.25727949  0.71040534  0.06648358    -0.10700
C1056       C  0.22801096  0.71973178  0.08196087    -0.12300
C1057       C  0.26007184  0.71609040  0.43307846    -0.10700
C1058       C  0.22958887  0.72368952  0.41821568    -0.12300
C1059       C  0.25610099  0.78792030  0.31571254    -0.10700
C1060       C  0.22643285  0.77707469  0.32978282    -0.12300
C1061       C  0.24286580  0.53113406  0.33196756    -0.10700
C1062       C  0.21359902  0.54046286  0.31649131    -0.12300
C1063       C  0.21080421  0.53477793  0.18308408    -0.10700
C1064       C  0.24128634  0.52718066  0.16822099    -0.12300
C1065       C  0.01015436  0.51712855  0.14810663    -0.10700
C1066       C  0.02770267  0.53171937  0.17149306    -0.12300
C1067       C  0.11010759  0.67122662  0.18091162    -0.10700
C1068       C  0.11942434  0.69551087  0.16361449    -0.12300
C1069       C  0.11755972  0.69234518  0.34075897    -0.10700
C1070       C  0.10601223  0.66891095  0.32300020    -0.12300
C1071       C  0.21477054  0.96294553  0.06571810    -0.10700
C1072       C  0.24443785  0.97379308  0.07978931    -0.12300
C1073       C  0.21720432  0.95482328  0.43266160    -0.10700
C1074       C  0.24571521  0.96725284  0.41830174    -0.12300
C1075       C  0.02958219  0.96081869  0.07810918    -0.10700
C1076       C  0.01087475  0.97441743  0.10158244    -0.12300
C1077       C  0.12249424  0.80070652  0.40925643    -0.10700
C1078       C  0.11345408  0.82425711  0.42793843    -0.12300
C1079       C  0.11706910  0.82422184  0.07094799    -0.10700
C1080       C  0.12439081  0.79994692  0.08900829    -0.12300
C1081       C  0.02925626  0.52931531  0.32813609    -0.10700
C1082       C  0.01030675  0.51630422  0.35155044    -0.12300
C1083       C  0.01131554  0.97446278  0.39785595    -0.10700
C1084       C  0.03136841  0.96232299  0.42119935    -0.12300
C1085       C  0.94315637  0.53170971  0.07822913    -0.10700
C1086       C  0.96070280  0.51712471  0.10161769    -0.12300
C1087       C  0.94160308  0.52930993  0.42157265    -0.10700
C1088       C  0.96054963  0.51630337  0.39815423    -0.12300
C1089       C  0.75726309  0.54050355  0.43322811    -0.10700
C1090       C  0.72799388  0.53117439  0.41775283    -0.12300
C1091       C  0.72957677  0.52721590  0.08148002    -0.10700
C1092       C  0.76006372  0.53481331  0.06662430    -0.12300
C1093       C  0.94128095  0.96081755  0.17161495    -0.10700
C1094       C  0.95999246  0.97441704  0.14814536    -0.12300
C1095       C  0.93948356  0.96232601  0.32850961    -0.10700
C1096       C  0.95954206  0.97446555  0.35184873    -0.12300
C1097       C  0.75365183  0.95484450  0.31705350    -0.10700
C1098       C  0.72514284  0.96727927  0.33142028    -0.12300
C1099       C  0.72642356  0.97382243  0.16991062    -0.10700
C1100       C  0.75608640  0.96297122  0.18398552    -0.12300
C1101       C  0.71081896  0.71605995  0.31662806    -0.10700
C1102       C  0.74130367  0.72366086  0.33148421    -0.12300
C1103       C  0.74445523  0.77704880  0.41991910    -0.10700
C1104       C  0.71479210  0.78789844  0.43399346    -0.12300
C1105       C  0.84836747  0.80070164  0.34044398    -0.10700
C1106       C  0.85739347  0.82425835  0.32176950    -0.12300
C1107       C  0.85335119  0.69233118  0.40892852    -0.10700
C1108       C  0.86489595  0.66889913  0.42669592    -0.12300
C1109       C  0.74573692  0.78359466  0.08142700    -0.10700
C1110       C  0.71723057  0.79602862  0.06706184    -0.12300
C1111       C  0.74288557  0.71969430  0.16775772    -0.10700
C1112       C  0.71361829  0.71036854  0.18323138    -0.12300
C1113       C  0.84646965  0.79993800  0.16072522    -0.10700
C1114       C  0.85378071  0.82422099  0.17877794    -0.12300
C1115       C  0.86081227  0.67122837  0.06880762    -0.10700
C1116       C  0.85149907  0.69550753  0.08611353    -0.12300
C1117       C  0.82895661  0.72182078  0.60456131     0.89000
C1118       C  0.80144811  0.74250708  0.58029444    -0.51200
C1119       C  0.77842076  0.76575536  0.59757161     0.12000
C1120       C  0.78517327  0.76648999  0.63692309     0.22900
C1121       C  0.85388366  0.74831675  0.62439798    -0.51900
C1122       C  0.83057796  0.77179309  0.64117312     0.12100
C1123       C  0.80061091  0.70613538  0.63154563    -0.51500
C1124       C  0.77740302  0.72959252  0.64803202     0.12600
H1125       H  0.79875542  0.73783049  0.55239480     0.17100
H1126       H  0.76627192  0.78552383  0.65082078     0.02900
H1127       H  0.88641192  0.74872967  0.62484428     0.17500
H1128       H  0.79700455  0.67881094  0.63531575     0.17200
C1129       C  0.83000654  0.71967832  0.89229868     0.89000
C1130       C  0.80100905  0.70630780  0.86428048    -0.51200
C1131       C  0.77768529  0.73130534  0.85000935     0.12000
C1132       C  0.78622693  0.76707805  0.86398980     0.22900
C1133       C  0.85480955  0.74751822  0.87445081    -0.51900
C1134       C  0.83178441  0.77237784  0.85970475     0.12100
C1135       C  0.80265002  0.73849298  0.91831976    -0.51500
C1136       C  0.77934561  0.76296618  0.90313821     0.12600
H1137       H  0.79666958  0.67941181  0.85875867     0.17100
H1138       H  0.76744766  0.78727237  0.85181547     0.02900
H1139       H  0.88737821  0.74747293  0.87334518     0.17500
H1140       H  0.79946808  0.73106933  0.94552190     0.17200
O1141       O  0.88990054  0.86886551  0.79180039    -0.79300
C1142       C  0.78719964  0.94876264  0.70520775     1.00100
O1143       O  0.77922523  0.92217584  0.72202545    -0.68400
O1144       O  0.82351359  0.86898141  0.70771136    -0.72000
Al1145     Al  0.80958079  0.89141632  0.74939578     1.49000
C1146       C  0.85494469  0.85185833  0.70303081     0.95400
O1147       O  0.92062402  0.91638321  0.70887225    -0.78200
O1148       O  0.88381429  0.96513451  0.79138138    -0.71700
Al1149     Al  0.90241972  0.89415405  0.75044686     1.90100
O1150       O  0.89831815  0.96798176  0.71952976    -0.70800
O1151       O  0.80635167  0.96439501  0.77897860    -0.70700
O1152       O  0.82039814  0.96375028  0.70878304    -0.76300
O1153       O  0.79009391  0.91129083  0.79096250    -0.74500
O1154       O  0.85495894  0.91571994  0.74987897    -1.10700
O1155       O  0.82860082  0.85475704  0.77708536    -0.69900
C1156       C  0.85904806  0.85070495  0.79591771     1.00900
C1157       C  0.91907240  0.94768065  0.70136454     0.97300
Al1158     Al  0.85278102  0.96133534  0.74979977     1.55600
O1159       O  0.88611834  0.85709279  0.72089813    -0.74500
C1160       C  0.78554949  0.94285846  0.79543660     1.01400
C1161       C  0.91630468  0.95053052  0.79892990     0.96300
O1162       O  0.92912161  0.92602427  0.78074916    -0.79800
O1163       O  0.89648100  0.62400885  0.95720756    -0.79300
C1164       C  0.79139318  0.54751419  0.54481102     1.00100
O1165       O  0.78406322  0.57389447  0.52741843    -0.68400
O1166       O  0.82957127  0.62648649  0.54081474    -0.72000
Al1167     Al  0.81511813  0.60360478  0.99954292     1.49000
C1168       C  0.86147997  0.64302057  0.54530921     0.95400
O1169       O  0.92448986  0.57671918  0.54102648    -0.78200
O1170       O  0.88615480  0.52831198  0.95852759    -0.71700
Al1171     Al  0.90773355  0.59886035  0.49899342     1.90100
O1172       O  0.90154826  0.52545136  0.52976043    -0.70800
O1173       O  0.80920429  0.53018586  0.97169180    -0.70700
O1174       O  0.82411897  0.53171806  0.54151749    -0.76300
O1175       O  0.79532269  0.58341086  0.95830511    -0.74500
O1176       O  0.85961788  0.57841958  0.99958374    -1.10700
O1177       O  0.83532402  0.63924093  0.97130978    -0.69900
C1178       C  0.86606000  0.64263489  0.95271198     1.00900
C1179       C  0.92214453  0.54541818  0.54832848     0.97300
Al1180     Al  0.85597121  0.53286288  0.00020154     1.55600
O1181       O  0.89260073  0.63676065  0.52778106    -0.74500
C1182       C  0.78943533  0.55190875  0.95466368     1.01400
C1183       C  0.91926685  0.54185385  0.95109635     0.96300
O1184       O  0.93335171  0.56581171  0.96935914    -0.79800
C1185       C  0.98542869  0.99523832  0.87485165     0.00100
O1186       O  0.08094144  0.86885987  0.95791488    -0.79300
C1187       C  0.18365552  0.94874248  0.54449938     1.00100
O1188       O  0.19162702  0.92215553  0.52768095    -0.68400
O1189       O  0.14733604  0.86896897  0.54199934    -0.72000
Al1190     Al  0.16126599  0.89140060  0.00031335     1.49000
C1191       C  0.11590634  0.85185396  0.54668573     0.95400
O1192       O  0.05022814  0.91638413  0.54084434    -0.78200
O1193       O  0.08703296  0.96512921  0.95833286    -0.71700
Al1194     Al  0.06842771  0.89415162  0.49926916     1.90100
O1195       O  0.07253609  0.96797922  0.53018615    -0.70800
O1196       O  0.16449666  0.96437874  0.97073143    -0.70700
O1197       O  0.15045708  0.96373542  0.54092768    -0.76300
O1198       O  0.18075002  0.91127232  0.95874440    -0.74500
O1199       O  0.11588869  0.91571054  0.99983337    -1.10700
O1200       O  0.14224234  0.85474419  0.97262629    -0.69900
C1201       C  0.11179520  0.85069700  0.95379434     1.00900
C1202       C  0.05178351  0.94768062  0.54835436     0.97300
Al1203     Al  0.11806893  0.96132563  0.99991262     1.55600
O1204       O  0.08472933  0.85708876  0.52882000    -0.74500
C1205       C  0.18529941  0.94284050  0.95427225     1.01400
C1206       C  0.05454286  0.95052863  0.95078313     0.96300
O1207       O  0.04172472  0.92602520  0.96896629    -0.79800
O1208       O  0.07441428  0.62402046  0.79250177    -0.79300
C1209       C  0.17947959  0.54748254  0.70490371     1.00100
O1210       O  0.18681816  0.57385828  0.72230003    -0.68400
O1211       O  0.14132694  0.62646539  0.70889856    -0.72000
Al1212     Al  0.15576983  0.60357894  0.75017158     1.49000
C1213       C  0.10942641  0.64301183  0.70440163     0.95400
O1214       O  0.04638282  0.57672709  0.70868959    -0.78200
O1215       O  0.08470589  0.52830710  0.79118416    -0.71700
Al1216     Al  0.06315202  0.59886753  0.75071933     1.90100
O1217       O  0.06931868  0.52545398  0.71995256    -0.70800
O1218       O  0.16165948  0.53015827  0.77802338    -0.70700
O1219       O  0.14675003  0.53169775  0.70819642    -0.76300
O1220       O  0.17555264  0.58337902  0.79141127    -0.74500
O1221       O  0.11126135  0.57840961  0.75013004    -1.10700
O1222       O  0.13557709  0.63922503  0.77839951    -0.69900
C1223       C  0.10484035  0.64263555  0.79699322     1.00900
C1224       C  0.04872182  0.54542390  0.70138809     0.97300
Al1225     Al  0.11489554  0.53285091  0.74951208     1.55600
O1226       O  0.07829756  0.63675892  0.72192572    -0.74500
C1227       C  0.18143208  0.55187568  0.79505362     1.01400
C1228       C  0.05160148  0.54185927  0.79861787     0.96300
O1229       O  0.03752561  0.56583091  0.78036081    -0.79800
C1230       C  0.14089638  0.71969454  0.85739256     0.89000
C1231       C  0.16989442  0.70633247  0.88540771    -0.51200
C1232       C  0.19321042  0.73132824  0.89968561     0.12000
C1233       C  0.18464599  0.76709568  0.88570127     0.22900
C1234       C  0.11607984  0.74752714  0.87523748    -0.51900
C1235       C  0.13909318  0.77239340  0.88998972     0.12100
C1236       C  0.16824465  0.73851517  0.83137087    -0.51500
C1237       C  0.19154183  0.76299502  0.84655951     0.12600
H1238       H  0.17424855  0.67942282  0.89093425     0.17100
H1239       H  0.20343076  0.78730780  0.89788694     0.02900
H1240       H  0.08350513  0.74747603  0.87634286     0.17500
H1241       H  0.17143597  0.73109328  0.80417028     0.17200
C1242       C  0.14195809  0.72182832  0.64516824     0.89000
C1243       C  0.16946194  0.74251940  0.66944527    -0.51200
C1244       C  0.19247646  0.76577777  0.65215272     0.12000
C1245       C  0.18570834  0.76651600  0.61280881     0.22900
C1246       C  0.11700485  0.74832667  0.62534336    -0.51900
C1247       C  0.14030595  0.77180935  0.60856513     0.12100
C1248       C  0.17030010  0.70617049  0.61818111    -0.51500
C1249       C  0.19349397  0.72961554  0.60169124     0.12600
H1250       H  0.17216614  0.73784116  0.69732483     0.17100
H1251       H  0.20459988  0.78555492  0.59890450     0.02900
H1252       H  0.08449014  0.74873087  0.62489969     0.17500
H1253       H  0.17392404  0.67881893  0.61440024     0.17200
C1254       C  0.98543197  0.99560249  0.62486337     0.00100
O1255       O  0.38993304  0.88200942  0.70791917    -0.79300
C1256       C  0.28721796  0.80212306  0.79449455     1.00100
O1257       O  0.27924753  0.82871073  0.77767701    -0.68400
O1258       O  0.32353715  0.88189632  0.79199934    -0.72000
Al1259     Al  0.30960738  0.85946656  0.75031186     1.49000
C1260       C  0.35496792  0.89901220  0.79668928     0.95400
O1261       O  0.42064630  0.83448145  0.79084799    -0.78200
O1262       O  0.38384230  0.78574007  0.70833236    -0.71700
Al1263     Al  0.40244668  0.85671579  0.74927303     1.90100
O1264       O  0.39833811  0.78288689  0.78018733    -0.70800
O1265       O  0.30637901  0.78648903  0.72072712    -0.70700
O1266       O  0.32041637  0.78712915  0.79092373    -0.76300
O1267       O  0.29012363  0.83959600  0.70874167    -0.74500
O1268       O  0.35498497  0.83515648  0.74983370    -1.10700
O1269       O  0.32863184  0.89612417  0.72262661    -0.69900
C1270       C  0.35907820  0.90017197  0.70379802     1.00900
C1271       C  0.41909083  0.80318380  0.79835666     0.97300
Al1272     Al  0.35280484  0.78954141  0.74991080     1.55600
O1273       O  0.38614439  0.89377692  0.77882459    -0.74500
C1274       C  0.28557385  0.80802960  0.70426648     1.01400
C1275       C  0.41633193  0.80034203  0.70078523     0.96300
O1276       O  0.42914966  0.82484381  0.71896979    -0.79800
O1277       O  0.39646254  0.62684998  0.54250712    -0.79300
C1278       C  0.29139743  0.70338542  0.95489748     1.00100
O1279       O  0.28405951  0.67700948  0.97229372    -0.68400
O1280       O  0.32955158  0.62440280  0.95889575    -0.72000
Al1281     Al  0.31510871  0.64728860  0.50016766     1.49000
C1282       C  0.36145533  0.60785359  0.95440380     0.95400
O1283       O  0.42449807  0.67413906  0.95869413    -0.78200
O1284       O  0.38617146  0.72256376  0.54118082    -0.71700
Al1285     Al  0.40772596  0.65200054  0.00072370     1.90100
O1286       O  0.40155916  0.72541261  0.96994926    -0.70800
O1287       O  0.30921835  0.72070974  0.52801805    -0.70700
O1288       O  0.32412753  0.71916963  0.95819083    -0.76300
O1289       O  0.29532529  0.66748872  0.54140578    -0.74500
O1290       O  0.35961680  0.67245836  0.50012878    -1.10700
O1291       O  0.33530188  0.61164270  0.52839795    -0.69900
C1292       C  0.36603401  0.60823269  0.54699579     1.00900
C1293       C  0.42215852  0.70544198  0.95138899     0.97300
Al1294     Al  0.35598214  0.71801710  0.49950806     1.55600
O1295       O  0.39257980  0.61410790  0.97193059    -0.74500
C1296       C  0.28944598  0.69899181  0.54504779     1.01400
C1297       C  0.41927647  0.70901139  0.54861806     0.96300
O1298       O  0.43335132  0.68503850  0.53036528    -0.79800
C1299       C  0.32892860  0.52903455  0.89517756     0.89000
C1300       C  0.30141640  0.50834111  0.91944574    -0.51200
C1301       C  0.27840443  0.98508854  0.90216452     0.12000
C1302       C  0.28516612  0.98434427  0.86281439     0.22900
C1303       C  0.35385521  0.50253208  0.87535040    -0.51900
C1304       C  0.33057190  0.97905237  0.85857460     0.12100
C1305       C  0.30057730  0.54469178  0.86818558    -0.51500
C1306       C  0.27738638  0.52124891  0.85169940     0.12600
H1307       H  0.29871466  0.51302410  0.94733880     0.17100
H1308       H  0.26627914  0.96531143  0.84891599     0.02900
H1309       H  0.38640840  0.50212726  0.87490709     0.17500
H1310       H  0.29695578  0.57204366  0.86440527     0.17200
C1311       C  0.32997808  0.53117902  0.60740004     0.89000
C1312       C  0.30097721  0.54453173  0.63541143    -0.51200
C1313       C  0.27766651  0.51954807  0.64968928     0.12000
C1314       C  0.28622378  0.98377244  0.63570614     0.22900
C1315       C  0.35478845  0.50334134  0.62524278    -0.51900
C1316       C  0.33178085  0.97847904  0.63999430     0.12100
C1317       C  0.30262228  0.51235798  0.58136279    -0.51500
C1318       C  0.27932944  0.98787554  0.59656833     0.12600
H1319       H  0.29662321  0.57145184  0.64093970     0.17100
H1320       H  0.26744679  0.96356937  0.64789105     0.02900
H1321       H  0.38736896  0.50339249  0.62634881     0.17500
H1322       H  0.29943445  0.51977310  0.55418954     0.17200
C1323       C  0.48544944  0.75526064  0.87486464     0.00100
C1324       C  0.64192851  0.52905296  0.85455622     0.89000
C1325       C  0.66943248  0.50835984  0.83029036    -0.51200
C1326       C  0.69245985  0.98511633  0.84756535     0.12000
C1327       C  0.68571322  0.98437516  0.88691934     0.22900
C1328       C  0.61698273  0.50254768  0.87439097    -0.51900
C1329       C  0.64030412  0.97907413  0.89116570     0.12100
C1330       C  0.67026785  0.54471197  0.88154019    -0.51500
C1331       C  0.69347680  0.52128375  0.89802731     0.12600
H1332       H  0.67212650  0.51303907  0.80238998     0.17100
H1333       H  0.70461037  0.96534779  0.90081282     0.02900
H1334       H  0.58448547  0.50213514  0.87483511     0.17500
H1335       H  0.67388080  0.57207651  0.88531630     0.17200
O1336       O  0.57440414  0.62686663  0.70720175    -0.79300
C1337       C  0.67948982  0.70335736  0.79481384     1.00100
O1338       O  0.68681855  0.67697786  0.77742259    -0.68400
O1339       O  0.64130952  0.62438608  0.79081625    -0.72000
Al1340     Al  0.65576348  0.64726807  0.74954526     1.49000
C1341       C  0.60939936  0.60785018  0.79530647     0.95400
O1342       O  0.54639060  0.67415048  0.79102246    -0.78200
O1343       O  0.58472529  0.72256318  0.70852772    -0.71700
Al1344     Al  0.56314825  0.65201248  0.74898898     1.90100
O1345       O  0.56933359  0.72541903  0.77976172    -0.70800
O1346       O  0.66167697  0.72068716  0.72169359    -0.70700
O1347       O  0.64676307  0.71915399  0.79151927    -0.76300
O1348       O  0.67555920  0.66746179  0.70830919    -0.74500
O1349       O  0.61126407  0.67245345  0.74958335    -1.10700
O1350       O  0.63555915  0.61163213  0.72131073    -0.69900
C1351       C  0.60482264  0.60824108  0.70270816     1.00900
C1352       C  0.54873734  0.70545207  0.79832647     0.97300
Al1353     Al  0.61491056  0.71801020  0.75020251     1.55600
O1354       O  0.57828140  0.61411049  0.77777552    -0.74500
C1355       C  0.68144660  0.69896591  0.70466660     1.01400
C1356       C  0.55161509  0.70902231  0.70109513     0.96300
O1357       O  0.53752953  0.68506227  0.71935537    -0.79800
C1358       C  0.64087935  0.53120110  0.64228843     0.89000
C1359       C  0.66987318  0.54456632  0.61427474    -0.51200
C1360       C  0.69319754  0.51957286  0.60000165     0.12000
C1361       C  0.68464947  0.98380108  0.61398473     0.22900
C1362       C  0.61606566  0.50336335  0.62444145    -0.51900
C1363       C  0.63909520  0.97850113  0.60969470     0.12100
C1364       C  0.66823104  0.51238427  0.66831380    -0.51500
C1365       C  0.69153517  0.98790754  0.65312691     0.12600
H1366       H  0.67421749  0.57147234  0.60875082     0.17100
H1367       H  0.70343306  0.96360169  0.60180866     0.02900
H1368       H  0.58350828  0.50340978  0.62333555     0.17500
H1369       H  0.67141362  0.51980473  0.69551153     0.17200
O1370       O  0.58097713  0.88200941  0.54179567    -0.79300
C1371       C  0.68368055  0.80210672  0.95521602     1.00100
O1372       O  0.69165507  0.82869335  0.97203229    -0.68400
O1373       O  0.64736899  0.88188773  0.95771273    -0.72000
Al1374     Al  0.66129956  0.85945452  0.49939912     1.49000
C1375       C  0.61593824  0.89901102  0.95302721     0.95400
O1376       O  0.55025794  0.83448639  0.95886963    -0.78200
O1377       O  0.58706318  0.78574008  0.54138636    -0.71700
Al1378     Al  0.56846078  0.85671810  0.00044340     1.90100
O1379       O  0.57256210  0.78288819  0.96953446    -0.71200
O1380       O  0.66452668  0.78647731  0.52898662    -0.70700
O1381       O  0.65048194  0.78711828  0.95879107    -0.76300
O1382       O  0.68078540  0.83958200  0.54096790    -0.74500
O1383       O  0.61592078  0.83515150  0.49988099    -1.10700
O1384       O  0.64227841  0.89611538  0.52708574    -0.69900
C1385       C  0.61183232  0.90017044  0.54591368     1.00900
C1386       C  0.55180808  0.80318722  0.95136427     0.97300
Al1387     Al  0.61809798  0.78953595  0.49980576     1.55600
O1388       O  0.58476336  0.89377695  0.97089265    -0.74500
C1389       C  0.68533120  0.80801402  0.54544463     1.01400
C1390       C  0.55457310  0.80034449  0.54893083     0.96300
O1391       O  0.54175671  0.82484995  0.53074676    -0.79800
C1392       C  0.48544668  0.75564016  0.62485126     0.00100
C1393       C  0.51133233  0.77641357  0.60184826    -0.10700
C1394       C  0.53139148  0.78855162  0.57850979    -0.12300
C1395       C  0.61348390  0.92661906  0.57176153    -0.10700
C1396       C  0.62250896  0.95017860  0.59043535    -0.12300
C1397       C  0.52927669  0.72156816  0.67157093    -0.10700
C1398       C  0.51032848  0.73457519  0.64815379    -0.12300
C1399       C  0.60598994  0.58197836  0.67669066    -0.10700
C1400       C  0.61753376  0.55854762  0.65892169    -0.12300
C1401       C  0.61937816  0.55535909  0.83610818    -0.10700
C1402       C  0.61006816  0.57964002  0.81880365    -0.12300
C1403       C  0.62441535  0.95092723  0.91071824    -0.10700
C1404       C  0.61710253  0.92664559  0.92877214    -0.12300
C1405       C  0.51017789  0.73373975  0.85161726    -0.10700
C1406       C  0.52772496  0.71915722  0.82822726    -0.12300
C1407       C  0.51088840  0.77644628  0.89814529    -0.10700
C1408       C  0.52960056  0.79004856  0.92161577    -0.12300
C1409       C  0.44317948  0.71914462  0.92149392    -0.10700
C1410       C  0.46072836  0.73373300  0.89810801    -0.12300
C1411       C  0.46056930  0.73457289  0.60155002    -0.10700
C1412       C  0.44162071  0.72155954  0.57813643    -0.12300
C1413       C  0.36077249  0.57963745  0.93091743    -0.10700
C1414       C  0.35145565  0.55534978  0.91362272    -0.12300
C1415       C  0.36486185  0.58196095  0.57300370    -0.10700
C1416       C  0.35331090  0.55852519  0.59076275    -0.12300
C1417       C  0.43950651  0.78855017  0.67120086    -0.10700
C1418       C  0.45956005  0.77641350  0.64785616    -0.12300
C1419       C  0.46000337  0.77644465  0.85158388    -0.10700
C1420       C  0.44129302  0.79004438  0.82811089    -0.12300
C1421       C  0.34648282  0.95091432  0.83901562    -0.10700
C1422       C  0.35380342  0.92664149  0.82095317    -0.12300
C1423       C  0.34838155  0.95016447  0.65926073    -0.10700
C1424       C  0.35742066  0.92661421  0.67794125    -0.12300
C1425       C  0.22515955  0.78361351  0.66829431    -0.10700
C1426       C  0.25367398  0.79604764  0.68265550    -0.12300
C1427       C  0.25727876  0.71040531  0.56648475    -0.10700
C1428       C  0.22801128  0.71973325  0.58196155    -0.12300
C1429       C  0.26007216  0.71609111  0.93307840    -0.10700
C1430       C  0.22958707  0.72368860  0.91821483    -0.12300
C1431       C  0.25610135  0.78792018  0.81571283    -0.10700
C1432       C  0.22643241  0.77707444  0.82978334    -0.12300
C1433       C  0.24286608  0.53113130  0.83196778    -0.10700
C1434       C  0.21359922  0.54046166  0.81649109    -0.12300
C1435       C  0.21080454  0.53477827  0.68308421    -0.10700
C1436       C  0.24128733  0.52718075  0.66822070    -0.12300
C1437       C  0.01015504  0.51712921  0.64810675    -0.10700
C1438       C  0.02770274  0.53171906  0.67149220    -0.12300
C1439       C  0.11010783  0.67122672  0.68091202    -0.10700
C1440       C  0.11942448  0.69551166  0.66361654    -0.12300
C1441       C  0.11755940  0.69234472  0.84075849    -0.10700
C1442       C  0.10601242  0.66891002  0.82299962    -0.12300
C1443       C  0.21477139  0.96294545  0.56571824    -0.10700
C1444       C  0.24443973  0.97379428  0.57978759    -0.12300
C1445       C  0.21720267  0.95482209  0.93266222    -0.10700
C1446       C  0.24571576  0.96725302  0.91830194    -0.12300
C1447       C  0.02958313  0.96081897  0.57810883    -0.10700
C1448       C  0.01087503  0.97441784  0.60158260    -0.12300
C1449       C  0.12249229  0.80070577  0.90925549    -0.10700
C1450       C  0.11345427  0.82425653  0.92793770    -0.12300
C1451       C  0.11707041  0.82422105  0.57094890    -0.10700
C1452       C  0.12439109  0.79994754  0.58900829    -0.12300
C1453       C  0.02925613  0.52931490  0.82813622    -0.10700
C1454       C  0.01030674  0.51630421  0.85155019    -0.12300
C1455       C  0.01131484  0.97446309  0.89785531    -0.10700
C1456       C  0.03136881  0.96232283  0.92120000    -0.12300
C1457       C  0.94315594  0.53170998  0.57822810    -0.10700
C1458       C  0.96070340  0.51712465  0.60161782    -0.12300
C1459       C  0.94160257  0.52930989  0.92157260    -0.10700
C1460       C  0.96054982  0.51630356  0.89815389    -0.12300
C1461       C  0.75726273  0.54050377  0.93322715    -0.10700
C1462       C  0.72799595  0.53117220  0.91775314    -0.12300
C1463       C  0.72957690  0.52721575  0.58148000    -0.10700
C1464       C  0.76006396  0.53481317  0.56662423    -0.12300
C1465       C  0.94128168  0.96081803  0.67161438    -0.10700
C1466       C  0.95999271  0.97441715  0.64814538    -0.12300
C1467       C  0.93948380  0.96232590  0.82850936    -0.10700
C1468       C  0.95954187  0.97446577  0.85184838    -0.12300
C1469       C  0.75365107  0.95484469  0.81705390    -0.10700
C1470       C  0.72514565  0.96727689  0.83142208    -0.12300
C1471       C  0.72642240  0.97382317  0.66991094    -0.10700
C1472       C  0.75608791  0.96297038  0.68398624    -0.12300
C1473       C  0.71081878  0.71605994  0.81662755    -0.10700
C1474       C  0.74130501  0.72365943  0.83148443    -0.12300
C1475       C  0.74445612  0.77704970  0.91991763    -0.10700
C1476       C  0.71479129  0.78789900  0.93399447    -0.12300
C1477       C  0.84836767  0.80070151  0.84044370    -0.10700
C1478       C  0.85739338  0.82425860  0.82176826    -0.12300
C1479       C  0.85335115  0.69233182  0.90892879    -0.10700
C1480       C  0.86489662  0.66889918  0.92669682    -0.12300
C1481       C  0.74573833  0.78359436  0.58142823    -0.10700
C1482       C  0.71722912  0.79602895  0.56706044    -0.12300
C1483       C  0.74288728  0.71969488  0.66775660    -0.10700
C1484       C  0.71361720  0.71036843  0.68323182    -0.12300
C1485       C  0.84647061  0.79993910  0.66072465    -0.10700
C1486       C  0.85378166  0.82422109  0.67877684    -0.12300
C1487       C  0.86081182  0.67122974  0.56880796    -0.10700
C1488       C  0.85150007  0.69550714  0.58611366    -0.12300
loop_ 
_geom_bond_atom_site_label_1 
_geom_bond_atom_site_label_2 
_geom_bond_distance 
_geom_bond_site_symmetry_2 
_ccdc_geom_bond_type 
C1            C2   1.538       .  S
C1            C7   1.530       .  S
C1            C5   1.532       .  S
C1          C372   1.459       .  S
C2            H9   1.088       .  S
C2            C3   1.364       .  D
C3            C4   1.526       .  S
C3          C365   1.435       .  S
C4            C8   1.530       .  S
C4            C6   1.537       .  S
C4           H10   1.112       .  S
C5           H11   1.085       .  S
C5            C6   1.365       .  D
C6          C369   1.435       .  S
C7           H12   1.087       .  S
C7            C8   1.358       .  D
C8          C367   1.431       .  S
C13          C14   1.537       .  S
C13          C19   1.540       .  S
C13          C17   1.531       .  S
C13         C363   1.470       .  S
C14          H21   1.086       .  S
C14          C15   1.365       .  D
C15          C16   1.528       .  S
C15         C358   1.437       .  S
C16          C20   1.527       .  S
C16          C18   1.542       .  S
C16          H22   1.112       .  S
C17          H23   1.087       .  S
C17          C18   1.363       .  D
C18         C361   1.444       .  S
C19          H24   1.088       .  S
C19          C20   1.365       .  D
C20         C359   1.440       .  S
O25          C40   1.261       .  A
O25         Al33   1.916       .  S
C26          O36   1.261       .  A
C26          O27   1.254       .  A
C26         C356   1.431       .  S
O27         Al29   1.892       .  S
O28          C30   1.257       .  A
O28         Al29   1.883       .  S
Al29         O37   1.889       .  S
Al29         O39   1.896       .  S
Al29         O38   1.788       .  S
C30          O43   1.262       .  A
C30         C370   1.428       .  S
O31          C41   1.261       .  A
O31         Al33   1.916       .  S
O32          C45   1.259       .  A
O32         Al42   1.907       .  S
Al33         O46   1.925       .  S
Al33         O43   1.921       .  S
Al33         O38   1.794       .  S
O34          C41   1.264       .  A
O34         Al42   1.929       .  S
O35          C44   1.262       .  A
O35         Al42   1.914       .  S
O36         Al42   1.910       .  S
O37          C44   1.258       .  A
O38         Al42   1.789       .  S
O39          C40   1.256       .  A
C40         C362   1.435       .  S
C41         C349   1.454       .  S
C44         C353   1.428       .  S
C45          O46   1.262       .  A
C45         C351   1.448       .  S
O47          C62   1.262       .  A
O47        Al427   1.918       .  S
C48          O58   1.261       .  A
C48          O49   1.255       .  A
C48         C348   1.428       .  S
O49        Al423   1.890   1_554  S
O50          C52   1.258       .  A
O50        Al423   1.882   1_554  S
Al51         O59   1.888       .  S
Al51         O61   1.891       .  S
Al51        O421   1.890       .  S
Al51        O422   1.882       .  S
Al51         O60   1.782       .  S
C52          O65   1.260       .  A
C52         C371   1.427       .  S
O53          C63   1.261       .  A
O53         Al55   1.914   1_554  S
O54          C67   1.258       .  A
O54         Al64   1.897       .  S
Al55         O65   1.918   1_556  S
Al55        O419   1.918       .  S
Al55        O440   1.923       .  S
Al55        O432   1.794       .  S
O56          C63   1.261       .  A
O56        Al436   1.918       .  S
O57          C66   1.259       .  A
O57         Al64   1.907       .  S
O58        Al436   1.908       .  S
O59          C66   1.258       .  A
O60         Al64   1.790       .  S
O60        Al427   1.794       .  S
O61          C62   1.256       .  A
C62         C364   1.434       .  S
C63         C341   1.447       .  S
Al64        O428   1.918       .  S
Al64        O430   1.908       .  S
C66         C345   1.424       .  S
C67          O68   1.262       .  A
C67         C343   1.442       .  S
O68        Al427   1.923       .  S
C69         C339   1.479   1_655  S
C69         C352   1.479       .  S
C69        C1082   1.473   1_655  S
C69        C1088   1.473       .  S
O70          C85   1.261       .  A
O70        Al450   1.916       .  S
C71          O81   1.261       .  A
C71          O72   1.254       .  A
C71         C327   1.431       .  S
O72        Al446   1.892       .  S
O73          C75   1.257       .  A
O73        Al446   1.883       .  S
Al74         O82   1.890       .  S
Al74         O84   1.896       .  S
Al74        O444   1.892       .  S
Al74        O445   1.883       .  S
Al74         O83   1.788       .  S
C75          O88   1.262       .  A
C75         C335   1.428       .  S
O76          C86   1.261       .  A
O76         Al78   1.916   1_554  S
O77          C90   1.259       .  A
O77         Al87   1.907       .  S
Al78         O88   1.921   1_556  S
Al78        O442   1.916       .  S
Al78        O463   1.925       .  S
Al78        O455   1.794       .  S
O79          C86   1.264       .  A
O79        Al459   1.929   1_554  S
O80          C89   1.262       .  A
O80         Al87   1.914       .  S
O81        Al459   1.910   1_554  S
O82          C89   1.258       .  A
O83         Al87   1.789       .  S
O83        Al450   1.794       .  S
O84          C85   1.256       .  A
C85         C334   1.435       .  S
C86         C331   1.454       .  S
Al87        O451   1.929       .  S
Al87        O453   1.910       .  S
C89         C329   1.428       .  S
C90          O91   1.262       .  A
C90         C340   1.448       .  S
O91        Al450   1.925       .  S
O92         C107   1.262       .  A
O92        Al100   1.919       .  S
C93         O103   1.261       .  A
C93          O94   1.255       .  A
C93         C319   1.428       .  S
O94         Al96   1.890       .  S
O95          C97   1.258       .  A
O95         Al96   1.882       .  S
Al96        O104   1.888       .  S
Al96        O106   1.891       .  S
Al96        O105   1.782       .  S
C97         O110   1.261       .  A
C97         C323   1.427       .  S
O98         C108   1.261       .  A
O98        Al100   1.914       .  S
O99         C112   1.258       .  A
O99        Al109   1.897       .  S
Al100       O113   1.923       .  S
Al100       O110   1.918       .  S
Al100       O105   1.794       .  S
O101        C108   1.261       .  A
O101       Al109   1.918       .  S
O102        C111   1.259       .  A
O102       Al109   1.907       .  S
O103       Al109   1.908       .  S
O104        C111   1.258       .  A
O105       Al109   1.790       .  S
O106        C107   1.256       .  A
C107        C326   1.434       .  S
C108        C322   1.447       .  S
C111        C318   1.423       .  S
C112        O113   1.262       .  A
C112        C337   1.442       .  S
C114        C115   1.537       .  S
C114        C120   1.540       .  S
C114        C118   1.531       .  S
C114        C325   1.470       .  S
C115        H122   1.086       .  S
C115        C116   1.365       .  D
C116        C117   1.528       .  S
C116        C314   1.437       .  S
C117        C121   1.527       .  S
C117        C119   1.542       .  S
C117        H123   1.112       .  S
C118        H124   1.087       .  S
C118        C119   1.363       .  D
C119        C333   1.444       .  S
C120        H125   1.088       .  S
C120        C121   1.365       .  D
C121        C316   1.440       .  S
C126        C127   1.538       .  S
C126        C132   1.530       .  S
C126        C130   1.533       .  S
C126        C324   1.459       .  S
C127        H134   1.089       .  S
C127        C128   1.363       .  D
C128        C129   1.526       .  S
C128        C309   1.435       .  S
C129        C133   1.530       .  S
C129        C131   1.537       .  S
C129        H135   1.113       .  S
C130        H136   1.085       .  S
C130        C131   1.366       .  D
C131        C336   1.435       .  S
C132        H137   1.089       .  S
C132        C133   1.357       .  D
C133        C312   1.431       .  S
C138        C332   1.485   1_655  S
C138        C350   1.485       .  S
C138       C1065   1.479   1_655  S
C138       C1086   1.479       .  S
O139        C154   1.261       .  A
O139       Al147   1.916       .  S
C140        O150   1.261       .  A
C140        O141   1.254       .  A
C140        C315   1.431       .  S
O141       Al143   1.892       .  S
O142        C144   1.257       .  A
O142       Al143   1.883       .  S
Al143       O151   1.890       .  S
Al143       O153   1.896       .  S
Al143       O152   1.788       .  S
C144        O157   1.262       .  A
C144        C306   1.428       .  S
O145        C155   1.261       .  A
O145       Al147   1.916       .  S
O146        C159   1.259       .  A
O146       Al156   1.907       .  S
Al147       O160   1.925       .  S
Al147       O157   1.921       .  S
Al147       O152   1.794       .  S
O148        C155   1.264       .  A
O148       Al156   1.929       .  S
O149        C158   1.262       .  A
O149       Al156   1.914       .  S
O150       Al156   1.910       .  S
O151        C158   1.258       .  A
O152       Al156   1.789       .  S
O153        C154   1.256       .  A
C154        C308   1.435       .  S
C155        C304   1.454       .  S
C158        C310   1.428       .  S
C159        O160   1.261       .  A
C159        C301   1.449       .  S
O161        C176   1.262       .  A
O161       Al541   1.919       .  S
C162        O172   1.261       .  A
C162        O163   1.254       .  A
C162        C313   1.428       .  S
O163       Al537   1.890       .  S
O164        C166   1.258       .  A
O164       Al537   1.882       .  S
Al165       O173   1.888       .  S
Al165       O175   1.891       .  S
Al165       O535   1.890   1_554  S
Al165       O536   1.882   1_554  S
Al165       O174   1.782       .  S
C166        O179   1.261       .  A
C166        C297   1.427       .  S
O167        C177   1.261       .  A
O167       Al169   1.914       .  S
O168        C181   1.258       .  A
O168       Al178   1.897   1_554  S
Al169       O179   1.918       .  S
Al169       O533   1.919       .  S
Al169       O554   1.923       .  S
Al169       O546   1.794       .  S
O170        C177   1.261       .  A
O170       Al550   1.918       .  S
O171        C180   1.259       .  A
O171       Al178   1.907   1_554  S
O172       Al550   1.908       .  S
O173        C180   1.258       .  A
O174       Al178   1.790   1_554  S
O174       Al541   1.794       .  S
O175        C176   1.256       .  A
C176        C299   1.434       .  S
C177        C293   1.447       .  S
Al178       O542   1.918       .  S
Al178       O544   1.908       .  S
C180        C311   1.423       .  S
C181        O182   1.262       .  A
C181        C296   1.442       .  S
O182       Al541   1.923       .  S
C183        C184   1.538       .  S
C183        C189   1.530       .  S
C183        C187   1.533       .  S
C183        C298   1.459       .  S
C184        H191   1.089       .  S
C184        C929   1.363   1_545  D
C185        C186   1.526       .  S
C185        C928   1.363       .  D
C185        C330   1.435       .  S
C186        C188   1.537       .  S
C186        C934   1.530       .  S
C186        H192   1.112       .  S
C187        H193   1.084       .  S
C187        C932   1.366   1_545  D
C188        C931   1.365       .  D
C188        C305   1.435       .  S
C189        H194   1.089       .  S
C189        C190   1.357       .  D
C190        C930   1.530   1_545  S
C190        C317   1.431       .  S
C195        C196   1.537       .  S
C195        C201   1.540       .  S
C195        C199   1.531       .  S
C195        C300   1.470       .  S
C196        H203   1.086       .  S
C196        C197   1.365       .  D
C197        C942   1.528   1_545  S
C197        C320   1.437       .  S
C198        C202   1.527       .  S
C198        C200   1.542       .  S
C198        C941   1.528       .  S
C198        H204   1.112       .  S
C199        H205   1.087       .  S
C199        C944   1.363   1_545  D
C200        C943   1.364       .  D
C200        C307   1.444       .  S
C201        H206   1.088       .  S
C201        C946   1.365   1_545  D
C202        C945   1.365       .  D
C202        C328   1.440       .  S
C207        C289   1.479       .  S
C207        C291   1.485       .  S
C207        C294   1.479       .  S
C207        C303   1.485       .  S
C208        C209   1.538       .  S
C208        C214   1.530       .  S
C208        C212   1.532       .  S
C208        C285   1.459       .  S
C209        H216   1.088       .  S
C209        C954   1.364   1_545  D
C210        C211   1.526       .  S
C210        C953   1.364       .  D
C210        C354   1.435       .  S
C211        C213   1.537       .  S
C211        C959   1.530       .  S
C211        H217   1.113       .  S
C212        H218   1.085       .  S
C212        C957   1.366   1_545  D
C213        C956   1.365       .  D
C213        C287   1.435       .  S
C214        H219   1.088       .  S
C214        C215   1.358       .  D
C215        C955   1.530   1_545  S
C215        C346   1.431       .  S
O220        C235   1.262       .  A
O220       Al228   1.918       .  S
C221        O231   1.261       .  A
C221        O222   1.255       .  A
C221        C357   1.428       .  S
O222       Al224   1.890       .  S
O223        C225   1.258       .  A
O223       Al224   1.882       .  S
Al224       O232   1.888       .  S
Al224       O234   1.891       .  S
Al224       O233   1.782       .  S
C225        O238   1.261       .  A
C225        C286   1.427       .  S
O226        C236   1.261       .  A
O226       Al228   1.914       .  S
O227        C240   1.258       .  A
O227       Al237   1.897       .  S
Al228       O241   1.923       .  S
Al228       O238   1.918       .  S
Al228       O233   1.794       .  S
O229        C236   1.261       .  A
O229       Al237   1.918       .  S
O230        C239   1.259       .  A
O230       Al237   1.907       .  S
O231       Al237   1.908       .  S
O232        C239   1.258       .  A
O233       Al237   1.790       .  S
O234        C235   1.256       .  A
C235        C283   1.434       .  S
C236        C290   1.447       .  S
C239        C368   1.424       .  S
C240        O241   1.262       .  A
C240        C281   1.442       .  S
C242        C243   1.537       .  S
C242        C248   1.540       .  S
C242        C246   1.531       .  S
C242        C284   1.470       .  S
C243        H250   1.086       .  S
C243        C244   1.365       .  D
C244        C989   1.528   1_545  S
C244        C347   1.437       .  S
C245        C249   1.527       .  S
C245        C247   1.542       .  S
C245        C988   1.528       .  S
C245        H251   1.113       .  S
C246        H252   1.087       .  S
C246        C991   1.363   1_545  D
C247        C990   1.364       .  D
C247        C280   1.444       .  S
C248        H253   1.088       .  S
C248        C993   1.365   1_545  D
C249        C992   1.365       .  D
C249        C355   1.440       .  S
O254        C269   1.261       .  A
O254       Al634   1.916       .  S
C255        O265   1.261       .  A
C255        O256   1.254       .  A
C255        C360   1.431       .  S
O256       Al630   1.892       .  S
O257        C259   1.257       .  A
O257       Al630   1.883       .  S
Al258       O266   1.889   1_556  S
Al258       O268   1.896   1_556  S
Al258       O628   1.892       .  S
Al258       O629   1.883       .  S
Al258       O267   1.788       .  S
C259        O272   1.262       .  A
C259        C288   1.428       .  S
O260        C270   1.261       .  A
O260       Al262   1.916       .  S
O261        C274   1.259       .  A
O261       Al271   1.907   1_554  S
Al262       O272   1.921       .  S
Al262       O626   1.916       .  S
Al262       O647   1.925       .  S
Al262       O639   1.794       .  S
O263        C270   1.264       .  A
O263       Al643   1.929       .  S
O264        C273   1.262       .  A
O264       Al271   1.914   1_554  S
O265       Al643   1.910       .  S
O266        C273   1.258       .  A
O267       Al271   1.790       .  S
O267       Al634   1.794   1_556  S
O268        C269   1.256       .  A
C269        C279   1.435       .  S
C270        C292   1.454       .  S
Al271       O635   1.929       .  S
Al271       O637   1.910       .  S
C273        C366   1.428       .  S
C274        O275   1.261       .  A
C274        C278   1.449       .  S
O275       Al634   1.925       .  S
C276        C277   1.479       .  S
C276        C282   1.473       .  S
C276        C295   1.473       .  S
C276        C302   1.479       .  S
C277        C278   1.214       .  T
C279        C280   1.207       .  T
C281        C282   1.211       .  T
C283        C284   1.207       .  T
C285        C286   1.201       .  T
C287        C288   1.202       .  T
C289        C290   1.214       .  T
C291        C292   1.218       .  T
C293        C294   1.214       .  T
C295        C296   1.211       .  T
C297        C298   1.201       .  T
C299        C300   1.207       .  T
C301        C302   1.214       .  T
C303        C304   1.218       .  T
C305        C306   1.202       .  T
C307        C308   1.207       .  T
C309        C310   1.202       .  T
C311        C312   1.199       .  T
C313        C314   1.203       .  T
C315        C316   1.204       .  T
C317        C318   1.199       .  T
C319        C320   1.203       .  T
C321        C882   1.479   1_445  S
C321        C322   1.214       .  T
C323        C324   1.201       .  T
C325        C326   1.207       .  T
C327        C328   1.205       .  T
C329        C330   1.202       .  T
C331        C332   1.218       .  T
C333        C334   1.207       .  T
C335        C336   1.202       .  T
C337        C338   1.211       .  T
C338        C813   1.473   1_445  S
C339        C340   1.214       .  T
C341        C342   1.214       .  T
C342        C882   1.479   1_545  S
C343        C344   1.211       .  T
C344        C813   1.473   1_545  S
C345        C346   1.199       .  T
C347        C348   1.203       .  T
C349        C350   1.218       .  T
C351        C352   1.214       .  T
C353        C354   1.202       .  T
C355        C356   1.204       .  T
C357        C358   1.203       .  T
C359        C360   1.204       .  T
C361        C362   1.207       .  T
C363        C364   1.207       .  T
C365        C366   1.202       .  T
C367        C368   1.199       .  T
C369        C370   1.202       .  T
C371        C372   1.201       .  T
C373        C374   1.538       .  S
C373        C379   1.530       .  S
C373        C377   1.533       .  S
C373        C744   1.459       .  S
C374        H381   1.089       .  S
C374        C375   1.364       .  D
C375        C376   1.526       .  S
C375        C737   1.435       .  S
C376        C380   1.530       .  S
C376        C378   1.537       .  S
C376        H382   1.113       .  S
C377        H383   1.085       .  S
C377        C378   1.366       .  D
C378        C741   1.435       .  S
C379        H384   1.089       .  S
C379        C380   1.358       .  D
C380        C739   1.431       .  S
C385        C386   1.537       .  S
C385        C391   1.540       .  S
C385        C389   1.531       .  S
C385        C735   1.470       .  S
C386        H393   1.086       .  S
C386        C387   1.365       .  D
C387        C388   1.528       .  S
C387        C730   1.437       .  S
C388        C392   1.527       .  S
C388        C390   1.542       .  S
C388        H394   1.113       .  S
C389        H395   1.087       .  S
C389        C390   1.363       .  D
C390        C733   1.444       .  S
C391        H396   1.088       .  S
C391        C392   1.365       .  D
C392        C731   1.440       .  S
O397        C412   1.261       .  A
O397       Al405   1.916       .  S
C398        O408   1.261       .  A
C398        O399   1.254       .  A
C398        C728   1.431       .  S
O399       Al401   1.892       .  S
O400        C402   1.257       .  A
O400       Al401   1.883       .  S
Al401       O409   1.889       .  S
Al401       O411   1.896       .  S
Al401       O410   1.788       .  S
C402        O415   1.262       .  A
C402        C742   1.428       .  S
O403        C413   1.261       .  A
O403       Al405   1.916       .  S
O404        C417   1.259       .  A
O404       Al414   1.907       .  S
Al405       O418   1.925       .  S
Al405       O415   1.921       .  S
Al405       O410   1.794       .  S
O406        C413   1.264       .  A
O406       Al414   1.929       .  S
O407        C416   1.262       .  A
O407       Al414   1.914       .  S
O408       Al414   1.910       .  S
O409        C416   1.258       .  A
O410       Al414   1.790       .  S
O411        C412   1.256       .  A
C412        C734   1.435       .  S
C413        C721   1.454       .  S
C416        C725   1.428       .  S
C417        O418   1.262       .  A
C417        C723   1.448       .  S
O419        C434   1.262       .  A
C420        O430   1.261       .  A
C420        O421   1.255       .  A
C420        C720   1.428       .  S
O422        C424   1.258       .  A
Al423       O431   1.888       .  S
Al423       O433   1.891       .  S
Al423       O432   1.782       .  S
C424        O437   1.261       .  A
C424        C743   1.427       .  S
O425        C435   1.261       .  A
O425       Al427   1.914       .  S
O426        C439   1.258       .  A
O426       Al436   1.897   1_556  S
Al427       O437   1.918       .  S
O428        C435   1.261       .  A
O429        C438   1.259       .  A
O429       Al436   1.907   1_556  S
O431        C438   1.258       .  A
O432       Al436   1.790   1_556  S
O433        C434   1.256       .  A
C434        C736   1.434       .  S
C435        C713   1.447       .  S
C438        C717   1.424       .  S
C439        O440   1.262       .  A
C439        C715   1.442       .  S
C441       C1454   1.473   1_655  S
C441        C711   1.479   1_655  S
C441       C1460   1.473       .  S
C441        C724   1.479       .  S
O442        C457   1.261       .  A
C443        O453   1.261       .  A
C443        O444   1.254       .  A
C443        C699   1.431       .  S
O445        C447   1.257       .  A
Al446       O454   1.890   1_554  S
Al446       O456   1.896   1_554  S
Al446       O455   1.788   1_554  S
C447        O460   1.262       .  A
C447        C707   1.428       .  S
O448        C458   1.261       .  A
O448       Al450   1.916       .  S
O449        C462   1.259       .  A
O449       Al459   1.907       .  S
Al450       O460   1.921       .  S
O451        C458   1.264       .  A
O452        C461   1.262       .  A
O452       Al459   1.914       .  S
O454        C461   1.258       .  A
O455       Al459   1.789       .  S
O456        C457   1.256       .  A
C457        C706   1.435       .  S
C458        C703   1.454       .  S
C461        C701   1.428       .  S
C462        O463   1.262       .  A
C462        C712   1.448       .  S
O464        C479   1.262       .  A
O464       Al472   1.919       .  S
C465        O475   1.261       .  A
C465        O466   1.254       .  A
C465        C691   1.428       .  S
O466       Al468   1.890       .  S
O467        C469   1.258       .  A
O467       Al468   1.882       .  S
Al468       O476   1.888       .  S
Al468       O478   1.891       .  S
Al468       O477   1.782       .  S
C469        O482   1.261       .  A
C469        C695   1.427       .  S
O470        C480   1.261       .  A
O470       Al472   1.914       .  S
O471        C484   1.258       .  A
O471       Al481   1.897       .  S
Al472       O485   1.923       .  S
Al472       O482   1.918       .  S
Al472       O477   1.794       .  S
O473        C480   1.261       .  A
O473       Al481   1.918       .  S
O474        C483   1.259       .  A
O474       Al481   1.907       .  S
O475       Al481   1.908       .  S
O476        C483   1.258       .  A
O477       Al481   1.790       .  S
O478        C479   1.256       .  A
C479        C698   1.434       .  S
C480        C694   1.447       .  S
C483        C690   1.424       .  S
C484        O485   1.262       .  A
C484        C709   1.442       .  S
C486        C487   1.538       .  S
C486        C492   1.540       .  S
C486        C490   1.531       .  S
C486        C697   1.470       .  S
C487        H494   1.085       .  S
C487        C488   1.365       .  D
C488        C489   1.528       .  S
C488        C686   1.437       .  S
C489        C493   1.527       .  S
C489        C491   1.542       .  S
C489        H495   1.112       .  S
C490        H496   1.087       .  S
C490        C491   1.363       .  D
C491        C705   1.444       .  S
C492        H497   1.089       .  S
C492        C493   1.365       .  D
C493        C688   1.440       .  S
C498        C499   1.538       .  S
C498        C504   1.530       .  S
C498        C502   1.533       .  S
C498        C696   1.459       .  S
C499        H506   1.089       .  S
C499        C500   1.364       .  D
C500        C501   1.526       .  S
C500        C681   1.435       .  S
C501        C505   1.530       .  S
C501        C503   1.537       .  S
C501        H507   1.112       .  S
C502        H508   1.085       .  S
C502        C503   1.366       .  D
C503        C708   1.435       .  S
C504        H509   1.088       .  S
C504        C505   1.358       .  D
C505        C684   1.431       .  S
C510       C1437   1.479   1_655  S
C510        C704   1.485   1_655  S
C510       C1458   1.479       .  S
C510        C722   1.485       .  S
O511        C526   1.261       .  A
O511       Al519   1.916       .  S
C512        O522   1.261       .  A
C512        O513   1.254       .  A
C512        C687   1.431       .  S
O513       Al515   1.892       .  S
O514        C516   1.257       .  A
O514       Al515   1.883       .  S
Al515       O523   1.890       .  S
Al515       O525   1.896       .  S
Al515       O524   1.788       .  S
C516        O529   1.262       .  A
C516        C678   1.428       .  S
O517        C527   1.261       .  A
O517       Al519   1.916       .  S
O518        C531   1.259       .  A
O518       Al528   1.907       .  S
Al519       O532   1.925       .  S
Al519       O529   1.921       .  S
Al519       O524   1.794       .  S
O520        C527   1.264       .  A
O520       Al528   1.929       .  S
O521        C530   1.262       .  A
O521       Al528   1.914       .  S
O522       Al528   1.910       .  S
O523        C530   1.258       .  A
O524       Al528   1.790       .  S
O525        C526   1.256       .  A
C526        C680   1.435       .  S
C527        C676   1.454       .  S
C530        C682   1.428       .  S
C531        O532   1.262       .  A
C531        C673   1.449       .  S
O533        C548   1.262       .  A
C534        O544   1.261       .  A
C534        O535   1.254       .  A
C534        C685   1.428       .  S
O536        C538   1.258       .  A
Al537       O545   1.888       .  S
Al537       O547   1.891       .  S
Al537       O546   1.782       .  S
C538        O551   1.261       .  A
C538        C669   1.427       .  S
O539        C549   1.261       .  A
O539       Al541   1.914   1_556  S
O540        C553   1.258       .  A
O540       Al550   1.897       .  S
Al541       O551   1.918   1_554  S
O542        C549   1.261       .  A
O543        C552   1.259       .  A
O543       Al550   1.907       .  S
O545        C552   1.258       .  A
O546       Al550   1.790       .  S
O547        C548   1.256       .  A
C548        C671   1.434       .  S
C549        C665   1.447       .  S
C552        C683   1.424       .  S
C553        O554   1.262       .  A
C553        C668   1.442       .  S
C555        C556   1.538       .  S
C555        C561   1.530       .  S
C555        C559   1.533       .  S
C555        C670   1.459       .  S
C556        H563   1.089       .  S
C556       C1301   1.363   1_545  D
C557        C558   1.526       .  S
C557       C1300   1.363       .  D
C557        C702   1.435       .  S
C558       C1306   1.530       .  S
C558        C560   1.537       .  S
C558        H564   1.112       .  S
C559        H565   1.084       .  S
C559       C1304   1.366   1_545  D
C560       C1303   1.365       .  D
C560        C677   1.435       .  S
C561        H566   1.089       .  S
C561        C562   1.357       .  D
C562       C1302   1.530   1_545  S
C562        C689   1.431       .  S
C567        C568   1.537       .  S
C567        C573   1.541       .  S
C567        C571   1.531       .  S
C567        C672   1.470       .  S
C568        H575   1.086       .  S
C568        C569   1.365       .  D
C569       C1314   1.528   1_545  S
C569        C692   1.437       .  S
C570       C1313   1.528       .  S
C570        C574   1.527       .  S
C570        C572   1.542       .  S
C570        H576   1.112       .  S
C571        H577   1.087       .  S
C571       C1316   1.363   1_545  D
C572       C1315   1.363       .  D
C572        C679   1.444       .  S
C573        H578   1.087       .  S
C573       C1318   1.365   1_545  D
C574       C1317   1.365       .  D
C574        C700   1.440       .  S
C579        C661   1.479       .  S
C579        C663   1.485       .  S
C579        C666   1.479       .  S
C579        C675   1.485       .  S
C580        C581   1.538       .  S
C580        C586   1.530       .  S
C580        C584   1.533       .  S
C580        C657   1.459       .  S
C581        H588   1.089       .  S
C581       C1326   1.363   1_545  D
C582        C583   1.526       .  S
C582       C1325   1.363       .  D
C582        C726   1.435       .  S
C583       C1331   1.530       .  S
C583        C585   1.537       .  S
C583        H589   1.112       .  S
C584        H590   1.085       .  S
C584       C1329   1.365   1_545  D
C585       C1328   1.366       .  D
C585        C659   1.435       .  S
C586        H591   1.088       .  S
C586        C587   1.358       .  D
C587       C1327   1.530   1_545  S
C587        C718   1.431       .  S
O592        C607   1.262       .  A
O592       Al600   1.918       .  S
C593        O603   1.261       .  A
C593        O594   1.255       .  A
C593        C729   1.428       .  S
O594       Al596   1.890       .  S
O595        C597   1.258       .  A
O595       Al596   1.882       .  S
Al596       O604   1.888       .  S
Al596       O606   1.891       .  S
Al596       O605   1.782       .  S
C597        O610   1.261       .  A
C597        C658   1.427       .  S
O598        C608   1.261       .  A
O598       Al600   1.914       .  S
O599        C612   1.258       .  A
O599       Al609   1.897       .  S
Al600       O613   1.923       .  S
Al600       O610   1.918       .  S
Al600       O605   1.794       .  S
O601        C608   1.261       .  A
O601       Al609   1.918       .  S
O602        C611   1.259       .  A
O602       Al609   1.907       .  S
O603       Al609   1.908       .  S
O604        C611   1.258       .  A
O605       Al609   1.790       .  S
O606        C607   1.256       .  A
C607        C655   1.434       .  S
C608        C662   1.447       .  S
C611        C740   1.424       .  S
C612        O613   1.262       .  A
C612        C653   1.442       .  S
C614        C615   1.537       .  S
C614        C620   1.540       .  S
C614        C618   1.531       .  S
C614        C656   1.470       .  S
C615        H622   1.085       .  S
C615        C616   1.365       .  D
C616       C1361   1.528   1_545  S
C616        C719   1.437       .  S
C617       C1360   1.528       .  S
C617        C621   1.527       .  S
C617        C619   1.542       .  S
C617        H623   1.112       .  S
C618        H624   1.087       .  S
C618       C1363   1.363   1_545  D
C619       C1362   1.364       .  D
C619        C652   1.444       .  S
C620        H625   1.088       .  S
C620       C1365   1.365   1_545  D
C621       C1364   1.365       .  D
C621        C727   1.440       .  S
O626        C641   1.261       .  A
C627        O637   1.261       .  A
C627        O628   1.254       .  A
C627        C732   1.431       .  S
O629        C631   1.257       .  A
Al630       O638   1.889       .  S
Al630       O640   1.896       .  S
Al630       O639   1.788       .  S
C631        O644   1.262       .  A
C631        C660   1.428       .  S
O632        C642   1.261       .  A
O632       Al634   1.916   1_556  S
O633        C646   1.259       .  A
O633       Al643   1.907       .  S
Al634       O644   1.921   1_554  S
O635        C642   1.264       .  A
O636        C645   1.262       .  A
O636       Al643   1.914       .  S
O638        C645   1.258       .  A
O639       Al643   1.789       .  S
O640        C641   1.256       .  A
C641        C651   1.435       .  S
C642        C664   1.454       .  S
C645        C738   1.428       .  S
C646        O647   1.261       .  A
C646        C650   1.448       .  S
C648        C649   1.479       .  S
C648        C654   1.473       .  S
C648        C667   1.473       .  S
C648        C674   1.479       .  S
C649        C650   1.214       .  T
C651        C652   1.207       .  T
C653        C654   1.211       .  T
C655        C656   1.207       .  T
C657        C658   1.201       .  T
C659        C660   1.202       .  T
C661        C662   1.214       .  T
C663        C664   1.218       .  T
C665        C666   1.214       .  T
C667        C668   1.211       .  T
C669        C670   1.201       .  T
C671        C672   1.207       .  T
C673        C674   1.214       .  T
C675        C676   1.218       .  T
C677        C678   1.202       .  T
C679        C680   1.207       .  T
C681        C682   1.202       .  T
C683        C684   1.199       .  T
C685        C686   1.203       .  T
C687        C688   1.204       .  T
C689        C690   1.199       .  T
C691        C692   1.203       .  T
C693       C1254   1.479   1_445  S
C693        C694   1.214       .  T
C695        C696   1.201       .  T
C697        C698   1.207       .  T
C699        C700   1.204       .  T
C701        C702   1.202       .  T
C703        C704   1.218       .  T
C705        C706   1.207       .  T
C707        C708   1.202       .  T
C709        C710   1.211       .  T
C710       C1185   1.473   1_445  S
C711        C712   1.214       .  T
C713        C714   1.214       .  T
C714       C1254   1.479   1_545  S
C715        C716   1.211       .  T
C716       C1185   1.473   1_545  S
C717        C718   1.199       .  T
C719        C720   1.203       .  T
C721        C722   1.218       .  T
C723        C724   1.214       .  T
C725        C726   1.202       .  T
C727        C728   1.204       .  T
C729        C730   1.203       .  T
C731        C732   1.204       .  T
C733        C734   1.207       .  T
C735        C736   1.207       .  T
C737        C738   1.202       .  T
C739        C740   1.199       .  T
C741        C742   1.202       .  T
C743        C744   1.201       .  T
C745        C746   1.538       .  S
C745        C751   1.530       .  S
C745        C749   1.532       .  S
C745       C1116   1.459       .  S
C746        H753   1.088       .  S
C746        C747   1.364       .  D
C747        C748   1.526       .  S
C747       C1109   1.435       .  S
C748        C752   1.530       .  S
C748        C750   1.537       .  S
C748        H754   1.112       .  S
C749        H755   1.085       .  S
C749        C750   1.366       .  D
C750       C1113   1.435       .  S
C751        H756   1.088       .  S
C751        C752   1.358       .  D
C752       C1111   1.431       .  S
C757        C758   1.537       .  S
C757        C763   1.540       .  S
C757        C761   1.531       .  S
C757       C1107   1.470       .  S
C758        H765   1.086       .  S
C758        C759   1.365       .  D
C759        C760   1.528       .  S
C759       C1102   1.437       .  S
C760        C764   1.527       .  S
C760        C762   1.542       .  S
C760        H766   1.112       .  S
C761        H767   1.087       .  S
C761        C762   1.363       .  D
C762       C1105   1.444       .  S
C763        H768   1.088       .  S
C763        C764   1.365       .  D
C764       C1103   1.440       .  S
O769        C784   1.261       .  A
O769       Al777   1.916       .  S
C770        O780   1.261       .  A
C770        O771   1.254       .  A
C770       C1100   1.431       .  S
O771       Al773   1.892       .  S
O772        C774   1.257       .  A
O772       Al773   1.883       .  S
Al773       O781   1.889       .  S
Al773       O783   1.896       .  S
Al773       O782   1.788       .  S
C774        O787   1.262       .  A
C774       C1114   1.428       .  S
O775        C785   1.261       .  A
O775       Al777   1.916       .  S
O776        C789   1.259       .  A
O776       Al786   1.907       .  S
Al777       O790   1.925       .  S
Al777       O787   1.921       .  S
Al777       O782   1.794       .  S
O778        C785   1.264       .  A
O778       Al786   1.929       .  S
O779        C788   1.262       .  A
O779       Al786   1.914       .  S
O780       Al786   1.910       .  S
O781        C788   1.258       .  A
O782       Al786   1.789       .  S
O783        C784   1.256       .  A
C784       C1106   1.435       .  S
C785       C1093   1.454       .  S
C788       C1097   1.428       .  S
C789        O790   1.261       .  A
C789       C1095   1.448       .  S
O791        C806   1.262       .  A
O791      Al1171   1.918       .  S
C792        O802   1.261       .  A
C792        O793   1.255       .  A
C792       C1092   1.428       .  S
O793      Al1167   1.890   1_554  S
O794        C796   1.258       .  A
O794      Al1167   1.882   1_554  S
Al795      O1165   1.890       .  S
Al795      O1166   1.882       .  S
Al795       O803   1.888       .  S
Al795       O805   1.891       .  S
Al795       O804   1.782       .  S
C796        O809   1.261       .  A
C796       C1115   1.427       .  S
O797        C807   1.261       .  A
O797       Al799   1.914   1_554  S
O798        C811   1.258       .  A
O798       Al808   1.897       .  S
Al799      O1163   1.918       .  S
Al799      O1184   1.923       .  S
Al799       O809   1.918   1_556  S
Al799      O1176   1.794       .  S
O800        C807   1.261       .  A
O800      Al1180   1.918       .  S
O801        C810   1.259       .  A
O801       Al808   1.907       .  S
O802      Al1180   1.908       .  S
O803        C810   1.258       .  A
O804      Al1171   1.794       .  S
O804       Al808   1.790       .  S
O805        C806   1.256       .  A
C806       C1108   1.434       .  S
C807       C1085   1.447       .  S
Al808      O1172   1.918       .  S
Al808      O1174   1.908       .  S
C810       C1089   1.424       .  S
C811        O812   1.262       .  A
C811       C1087   1.442       .  S
O812      Al1171   1.923       .  S
C813       C1083   1.479   1_655  S
C813       C1096   1.479       .  S
O814        C829   1.261       .  A
O814      Al1194   1.916       .  S
C815        O825   1.261       .  A
C815        O816   1.254       .  A
C815       C1071   1.431       .  S
O816      Al1190   1.892       .  S
O817        C819   1.257       .  A
O817      Al1190   1.883       .  S
Al818      O1188   1.892       .  S
Al818      O1189   1.883       .  S
Al818       O826   1.890       .  S
Al818       O828   1.896       .  S
Al818       O827   1.788       .  S
C819        O832   1.262       .  A
C819       C1079   1.428       .  S
O820        C830   1.261       .  A
O820       Al822   1.916   1_554  S
O821        C834   1.259       .  A
O821       Al831   1.907       .  S
Al822      O1186   1.916       .  S
Al822      O1207   1.925       .  S
Al822       O832   1.921   1_556  S
Al822      O1199   1.794       .  S
O823        C830   1.264       .  A
O823      Al1203   1.929   1_554  S
O824        C833   1.262       .  A
O824       Al831   1.914       .  S
O825      Al1203   1.910   1_554  S
O826        C833   1.258       .  A
O827      Al1194   1.794       .  S
O827       Al831   1.789       .  S
O828        C829   1.256       .  A
C829       C1078   1.435       .  S
C830       C1075   1.454       .  S
Al831      O1195   1.929       .  S
Al831      O1197   1.910       .  S
C833       C1073   1.428       .  S
C834        O835   1.262       .  A
C834       C1084   1.448       .  S
O835      Al1194   1.925       .  S
O836        C851   1.262       .  A
O836       Al844   1.919       .  S
C837        O847   1.261       .  A
C837        O838   1.255       .  A
C837       C1063   1.428       .  S
O838       Al840   1.890       .  S
O839        C841   1.258       .  A
O839       Al840   1.882       .  S
Al840       O848   1.888       .  S
Al840       O850   1.891       .  S
Al840       O849   1.782       .  S
C841        O854   1.261       .  A
C841       C1067   1.427       .  S
O842        C852   1.261       .  A
O842       Al844   1.914       .  S
O843        C856   1.258       .  A
O843       Al853   1.897       .  S
Al844       O857   1.923       .  S
Al844       O854   1.918       .  S
Al844       O849   1.794       .  S
O845        C852   1.261       .  A
O845       Al853   1.918       .  S
O846        C855   1.259       .  A
O846       Al853   1.907       .  S
O847       Al853   1.908       .  S
O848        C855   1.258       .  A
O849       Al853   1.790       .  S
O850        C851   1.256       .  A
C851       C1070   1.434       .  S
C852       C1066   1.447       .  S
C855       C1062   1.424       .  S
C856        O857   1.262       .  A
C856       C1081   1.442       .  S
C858        C859   1.537       .  S
C858        C864   1.540       .  S
C858        C862   1.531       .  S
C858       C1069   1.470       .  S
C859        H866   1.086       .  S
C859        C860   1.365       .  D
C860        C861   1.528       .  S
C860       C1058   1.437       .  S
C861        C865   1.527       .  S
C861        C863   1.542       .  S
C861        H867   1.112       .  S
C862        H868   1.087       .  S
C862        C863   1.363       .  D
C863       C1077   1.444       .  S
C864        H869   1.088       .  S
C864        C865   1.365       .  D
C865       C1060   1.440       .  S
C870        C871   1.538       .  S
C870        C876   1.531       .  S
C870        C874   1.533       .  S
C870       C1068   1.459       .  S
C871        H878   1.089       .  S
C871        C872   1.363       .  D
C872        C873   1.526       .  S
C872       C1053   1.435       .  S
C873        C877   1.530       .  S
C873        C875   1.537       .  S
C873        H879   1.112       .  S
C874        H880   1.085       .  S
C874        C875   1.365       .  D
C875       C1080   1.435       .  S
C876        H881   1.087       .  S
C876        C877   1.358       .  D
C877       C1056   1.431       .  S
C882       C1076   1.485   1_655  S
C882       C1094   1.485       .  S
O883        C898   1.261       .  A
O883       Al891   1.916       .  S
C884        O894   1.261       .  A
C884        O885   1.254       .  A
C884       C1059   1.431       .  S
O885       Al887   1.892       .  S
O886        C888   1.257       .  A
O886       Al887   1.883       .  S
Al887       O895   1.890       .  S
Al887       O897   1.896       .  S
Al887       O896   1.788       .  S
C888        O901   1.262       .  A
C888       C1050   1.428       .  S
O889        C899   1.261       .  A
O889       Al891   1.916       .  S
O890        C903   1.259       .  A
O890       Al900   1.907       .  S
Al891       O904   1.925       .  S
Al891       O901   1.921       .  S
Al891       O896   1.794       .  S
O892        C899   1.264       .  A
O892       Al900   1.929       .  S
O893        C902   1.262       .  A
O893       Al900   1.914       .  S
O894       Al900   1.910       .  S
O895        C902   1.258       .  A
O896       Al900   1.790       .  S
O897        C898   1.256       .  A
C898       C1052   1.435       .  S
C899       C1048   1.454       .  S
C902       C1054   1.428       .  S
C903        O904   1.262       .  A
C903       C1045   1.449       .  S
O905        C920   1.262       .  A
O905      Al1285   1.919       .  S
C906        O916   1.261       .  A
C906        O907   1.255       .  A
C906       C1057   1.428       .  S
O907      Al1281   1.890       .  S
O908        C910   1.258       .  A
O908      Al1281   1.882       .  S
Al909      O1279   1.890   1_554  S
Al909      O1280   1.882   1_554  S
Al909       O917   1.888       .  S
Al909       O919   1.891       .  S
Al909       O918   1.782       .  S
C910        O923   1.261       .  A
C910       C1041   1.427       .  S
O911        C921   1.261       .  A
O911       Al913   1.914       .  S
O912        C925   1.258       .  A
O912       Al922   1.897   1_554  S
Al913      O1277   1.919       .  S
Al913      O1298   1.923       .  S
Al913       O923   1.919       .  S
Al913      O1290   1.794       .  S
O914        C921   1.261       .  A
O914      Al1294   1.918       .  S
O915        C924   1.259       .  A
O915       Al922   1.907   1_554  S
O916      Al1294   1.908       .  S
O917        C924   1.258       .  A
O918      Al1285   1.794       .  S
O918       Al922   1.790   1_554  S
O919        C920   1.256       .  A
C920       C1043   1.434       .  S
C921       C1037   1.447       .  S
Al922      O1286   1.918       .  S
Al922      O1288   1.908       .  S
C924       C1055   1.424       .  S
C925        O926   1.262       .  A
C925       C1040   1.442       .  S
O926      Al1285   1.923       .  S
C927        C928   1.538       .  S
C927        C933   1.531       .  S
C927        C931   1.532       .  S
C927       C1042   1.459       .  S
C928        H935   1.089       .  S
C929        C930   1.526       .  S
C929       C1074   1.435       .  S
C930        C932   1.537       .  S
C930        H936   1.112       .  S
C931        H937   1.086       .  S
C932       C1049   1.435       .  S
C933        H938   1.087       .  S
C933        C934   1.358       .  D
C934       C1061   1.431       .  S
C939        C940   1.537       .  S
C939        C945   1.540       .  S
C939        C943   1.531       .  S
C939       C1044   1.470       .  S
C940        H947   1.086       .  S
C940        C941   1.365       .  D
C941       C1064   1.437       .  S
C942        C946   1.527       .  S
C942        C944   1.542       .  S
C942        H948   1.112       .  S
C943        H949   1.086       .  S
C944       C1051   1.444       .  S
C945        H950   1.088       .  S
C946       C1072   1.440       .  S
C951       C1033   1.479       .  S
C951       C1035   1.485       .  S
C951       C1038   1.479       .  S
C951       C1047   1.485       .  S
C952        C953   1.538       .  S
C952        C958   1.530       .  S
C952        C956   1.532       .  S
C952       C1029   1.459       .  S
C953        H960   1.088       .  S
C954        C955   1.526       .  S
C954       C1098   1.435       .  S
C955        C957   1.537       .  S
C955        H961   1.113       .  S
C956        H962   1.085       .  S
C957       C1031   1.435       .  S
C958        H963   1.088       .  S
C958        C959   1.358       .  D
C959       C1090   1.431       .  S
O964        C979   1.262       .  A
O964       Al972   1.918       .  S
C965        O975   1.261       .  A
C965        O966   1.255       .  A
C965       C1101   1.428       .  S
O966       Al968   1.890       .  S
O967        C969   1.258       .  A
O967       Al968   1.882       .  S
Al968       O976   1.888       .  S
Al968       O978   1.891       .  S
Al968       O977   1.782       .  S
C969        O982   1.261       .  A
C969       C1030   1.427       .  S
O970        C980   1.261       .  A
O970       Al972   1.914       .  S
O971        C984   1.258       .  A
O971       Al981   1.897       .  S
Al972       O985   1.923       .  S
Al972       O982   1.918       .  S
Al972       O977   1.794       .  S
O973        C980   1.261       .  A
O973       Al981   1.918       .  S
O974        C983   1.259       .  A
O974       Al981   1.907       .  S
O975       Al981   1.908       .  S
O976        C983   1.258       .  A
O977       Al981   1.790       .  S
O978        C979   1.256       .  A
C979       C1027   1.434       .  S
C980       C1034   1.447       .  S
C983       C1112   1.424       .  S
C984        O985   1.262       .  A
C984       C1025   1.442       .  S
C986        C987   1.537       .  S
C986        C992   1.540       .  S
C986        C990   1.531       .  S
C986       C1028   1.470       .  S
C987        H994   1.086       .  S
C987        C988   1.365       .  D
C988       C1091   1.437       .  S
C989        C993   1.527       .  S
C989        C991   1.542       .  S
C989        H995   1.112       .  S
C990        H996   1.087       .  S
C991       C1024   1.444       .  S
C992        H997   1.088       .  S
C993       C1099   1.440       .  S
O998       C1013   1.261       .  A
O998      Al1378   1.916       .  S
C999       O1009   1.261       .  A
C999       O1000   1.254       .  A
C999       C1104   1.431       .  S
O1000     Al1374   1.892       .  S
O1001      C1003   1.257       .  A
O1001     Al1374   1.883       .  S
Al1002     O1372   1.892       .  S
Al1002     O1373   1.883       .  S
Al1002     O1010   1.890   1_556  S
Al1002     O1012   1.896   1_556  S
Al1002     O1011   1.788       .  S
C1003      O1016   1.262       .  A
C1003      C1032   1.428       .  S
O1004      C1014   1.261       .  A
O1004     Al1006   1.916       .  S
O1005      C1018   1.259       .  A
O1005     Al1015   1.907   1_554  S
Al1006     O1370   1.916       .  S
Al1006     O1391   1.925       .  S
Al1006     O1016   1.921       .  S
Al1006     O1383   1.794       .  S
O1007      C1014   1.264       .  A
O1007     Al1387   1.929       .  S
O1008      C1017   1.262       .  A
O1008     Al1015   1.914   1_554  S
O1009     Al1387   1.910       .  S
O1010      C1017   1.258       .  A
O1011     Al1378   1.794   1_556  S
O1011     Al1015   1.790       .  S
O1012      C1013   1.256       .  A
C1013      C1023   1.435       .  S
C1014      C1036   1.454       .  S
Al1015     O1379   1.929       .  S
Al1015     O1381   1.910       .  S
C1017      C1110   1.428       .  S
C1018      O1019   1.262       .  A
C1018      C1022   1.448       .  S
O1019     Al1378   1.925       .  S
C1020      C1021   1.479       .  S
C1020      C1026   1.473       .  S
C1020      C1039   1.473       .  S
C1020      C1046   1.479       .  S
C1021      C1022   1.214       .  T
C1023      C1024   1.207       .  T
C1025      C1026   1.211       .  T
C1027      C1028   1.207       .  T
C1029      C1030   1.201       .  T
C1031      C1032   1.202       .  T
C1033      C1034   1.214       .  T
C1035      C1036   1.218       .  T
C1037      C1038   1.214       .  T
C1039      C1040   1.211       .  T
C1041      C1042   1.201       .  T
C1043      C1044   1.207       .  T
C1045      C1046   1.214       .  T
C1047      C1048   1.218       .  T
C1049      C1050   1.202       .  T
C1051      C1052   1.207       .  T
C1053      C1054   1.202       .  T
C1055      C1056   1.199       .  T
C1057      C1058   1.203       .  T
C1059      C1060   1.204       .  T
C1061      C1062   1.199       .  T
C1063      C1064   1.203       .  T
C1065      C1066   1.214       .  T
C1067      C1068   1.201       .  T
C1069      C1070   1.207       .  T
C1071      C1072   1.204       .  T
C1073      C1074   1.202       .  T
C1075      C1076   1.218       .  T
C1077      C1078   1.207       .  T
C1079      C1080   1.202       .  T
C1081      C1082   1.211       .  T
C1083      C1084   1.214       .  T
C1085      C1086   1.214       .  T
C1087      C1088   1.211       .  T
C1089      C1090   1.199       .  T
C1091      C1092   1.203       .  T
C1093      C1094   1.218       .  T
C1095      C1096   1.214       .  T
C1097      C1098   1.202       .  T
C1099      C1100   1.204       .  T
C1101      C1102   1.203       .  T
C1103      C1104   1.204       .  T
C1105      C1106   1.207       .  T
C1107      C1108   1.207       .  T
C1109      C1110   1.202       .  T
C1111      C1112   1.199       .  T
C1113      C1114   1.202       .  T
C1115      C1116   1.201       .  T
C1117      C1118   1.538       .  S
C1117      C1123   1.531       .  S
C1117      C1121   1.532       .  S
C1117      C1488   1.459       .  S
C1118      H1125   1.089       .  S
C1118      C1119   1.363       .  D
C1119      C1120   1.526       .  S
C1119      C1481   1.435       .  S
C1120      C1124   1.530       .  S
C1120      C1122   1.537       .  S
C1120      H1126   1.113       .  S
C1121      H1127   1.085       .  S
C1121      C1122   1.365       .  D
C1122      C1485   1.435       .  S
C1123      H1128   1.087       .  S
C1123      C1124   1.358       .  D
C1124      C1483   1.431       .  S
C1129      C1130   1.538       .  S
C1129      C1135   1.540       .  S
C1129      C1133   1.531       .  S
C1129      C1479   1.470       .  S
C1130      H1137   1.085       .  S
C1130      C1131   1.365       .  D
C1131      C1132   1.528       .  S
C1131      C1474   1.437       .  S
C1132      C1136   1.527       .  S
C1132      C1134   1.542       .  S
C1132      H1138   1.112       .  S
C1133      H1139   1.087       .  S
C1133      C1134   1.363       .  D
C1134      C1477   1.444       .  S
C1135      H1140   1.088       .  S
C1135      C1136   1.365       .  D
C1136      C1475   1.440       .  S
O1141      C1156   1.261       .  A
O1141     Al1149   1.916       .  S
C1142      O1152   1.261       .  A
C1142      O1143   1.254       .  A
C1142      C1472   1.431       .  S
O1143     Al1145   1.892       .  S
O1144      C1146   1.257       .  A
O1144     Al1145   1.883       .  S
Al1145     O1153   1.890       .  S
Al1145     O1155   1.896       .  S
Al1145     O1154   1.788       .  S
C1146      O1159   1.262       .  A
C1146      C1486   1.428       .  S
O1147      C1157   1.261       .  A
O1147     Al1149   1.916       .  S
O1148      C1161   1.259       .  A
O1148     Al1158   1.907       .  S
Al1149     O1162   1.925       .  S
Al1149     O1159   1.921       .  S
Al1149     O1154   1.794       .  S
O1150      C1157   1.264       .  A
O1150     Al1158   1.929       .  S
O1151      C1160   1.262       .  A
O1151     Al1158   1.914       .  S
O1152     Al1158   1.910       .  S
O1153      C1160   1.258       .  A
O1154     Al1158   1.789       .  S
O1155      C1156   1.256       .  A
C1156      C1478   1.435       .  S
C1157      C1465   1.454       .  S
C1160      C1469   1.428       .  S
C1161      O1162   1.262       .  A
C1161      C1467   1.448       .  S
O1163      C1178   1.262       .  A
C1164      O1174   1.261       .  A
C1164      O1165   1.255       .  A
C1164      C1464   1.428       .  S
O1166      C1168   1.258       .  A
Al1167     O1175   1.888       .  S
Al1167     O1177   1.891       .  S
Al1167     O1176   1.782       .  S
C1168      O1181   1.261       .  A
C1168      C1487   1.427       .  S
O1169      C1179   1.261       .  A
O1169     Al1171   1.914       .  S
O1170      C1183   1.258       .  A
O1170     Al1180   1.897   1_556  S
Al1171     O1181   1.918       .  S
O1172      C1179   1.261       .  A
O1173      C1182   1.259       .  A
O1173     Al1180   1.907   1_556  S
O1175      C1182   1.258       .  A
O1176     Al1180   1.790   1_556  S
O1177      C1178   1.256       .  A
C1178      C1480   1.434       .  S
C1179      C1457   1.447       .  S
C1182      C1461   1.424       .  S
C1183      O1184   1.262       .  A
C1183      C1459   1.442       .  S
C1185      C1455   1.479   1_655  S
C1185      C1468   1.479       .  S
O1186      C1201   1.261       .  A
C1187      O1197   1.261       .  A
C1187      O1188   1.254       .  A
C1187      C1443   1.431       .  S
O1189      C1191   1.257       .  A
Al1190     O1198   1.890   1_554  S
Al1190     O1200   1.896   1_554  S
Al1190     O1199   1.788   1_554  S
C1191      O1204   1.262       .  A
C1191      C1451   1.428       .  S
O1192      C1202   1.261       .  A
O1192     Al1194   1.916       .  S
O1193      C1206   1.259       .  A
O1193     Al1203   1.907       .  S
Al1194     O1204   1.921       .  S
O1195      C1202   1.264       .  A
O1196      C1205   1.262       .  A
O1196     Al1203   1.914       .  S
O1198      C1205   1.258       .  A
O1199     Al1203   1.790       .  S
O1200      C1201   1.256       .  A
C1201      C1450   1.435       .  S
C1202      C1447   1.454       .  S
C1205      C1445   1.428       .  S
C1206      O1207   1.262       .  A
C1206      C1456   1.448       .  S
O1208      C1223   1.262       .  A
O1208     Al1216   1.919       .  S
C1209      O1219   1.261       .  A
C1209      O1210   1.255       .  A
C1209      C1435   1.428       .  S
O1210     Al1212   1.890       .  S
O1211      C1213   1.258       .  A
O1211     Al1212   1.882       .  S
Al1212     O1220   1.888       .  S
Al1212     O1222   1.891       .  S
Al1212     O1221   1.782       .  S
C1213      O1226   1.261       .  A
C1213      C1439   1.427       .  S
O1214      C1224   1.261       .  A
O1214     Al1216   1.914       .  S
O1215      C1228   1.258       .  A
O1215     Al1225   1.897       .  S
Al1216     O1229   1.923       .  S
Al1216     O1226   1.918       .  S
Al1216     O1221   1.794       .  S
O1217      C1224   1.261       .  A
O1217     Al1225   1.918       .  S
O1218      C1227   1.259       .  A
O1218     Al1225   1.907       .  S
O1219     Al1225   1.908       .  S
O1220      C1227   1.258       .  A
O1221     Al1225   1.790       .  S
O1222      C1223   1.256       .  A
C1223      C1442   1.434       .  S
C1224      C1438   1.447       .  S
C1227      C1434   1.424       .  S
C1228      O1229   1.262       .  A
C1228      C1453   1.442       .  S
C1230      C1231   1.537       .  S
C1230      C1236   1.540       .  S
C1230      C1234   1.531       .  S
C1230      C1441   1.470       .  S
C1231      H1238   1.086       .  S
C1231      C1232   1.365       .  D
C1232      C1233   1.528       .  S
C1232      C1430   1.437       .  S
C1233      C1237   1.527       .  S
C1233      C1235   1.542       .  S
C1233      H1239   1.113       .  S
C1234      H1240   1.087       .  S
C1234      C1235   1.363       .  D
C1235      C1449   1.444       .  S
C1236      H1241   1.088       .  S
C1236      C1237   1.365       .  D
C1237      C1432   1.440       .  S
C1242      C1243   1.538       .  S
C1242      C1248   1.530       .  S
C1242      C1246   1.533       .  S
C1242      C1440   1.459       .  S
C1243      H1250   1.089       .  S
C1243      C1244   1.364       .  D
C1244      C1245   1.526       .  S
C1244      C1425   1.435       .  S
C1245      C1249   1.530       .  S
C1245      C1247   1.537       .  S
C1245      H1251   1.113       .  S
C1246      H1252   1.084       .  S
C1246      C1247   1.366       .  D
C1247      C1452   1.435       .  S
C1248      H1253   1.089       .  S
C1248      C1249   1.357       .  D
C1249      C1428   1.431       .  S
C1254      C1448   1.485   1_655  S
C1254      C1466   1.485       .  S
O1255      C1270   1.261       .  A
O1255     Al1263   1.916       .  S
C1256      O1266   1.261       .  A
C1256      O1257   1.254       .  A
C1256      C1431   1.431       .  S
O1257     Al1259   1.892       .  S
O1258      C1260   1.257       .  A
O1258     Al1259   1.883       .  S
Al1259     O1267   1.890       .  S
Al1259     O1269   1.896       .  S
Al1259     O1268   1.788       .  S
C1260      O1273   1.262       .  A
C1260      C1422   1.428       .  S
O1261      C1271   1.261       .  A
O1261     Al1263   1.916       .  S
O1262      C1275   1.259       .  A
O1262     Al1272   1.907       .  S
Al1263     O1276   1.925       .  S
Al1263     O1273   1.921       .  S
Al1263     O1268   1.794       .  S
O1264      C1271   1.264       .  A
O1264     Al1272   1.929       .  S
O1265      C1274   1.262       .  A
O1265     Al1272   1.914       .  S
O1266     Al1272   1.910       .  S
O1267      C1274   1.258       .  A
O1268     Al1272   1.789       .  S
O1269      C1270   1.256       .  A
C1270      C1424   1.435       .  S
C1271      C1420   1.454       .  S
C1274      C1426   1.428       .  S
C1275      O1276   1.262       .  A
C1275      C1417   1.448       .  S
O1277      C1292   1.262       .  A
C1278      O1288   1.261       .  A
C1278      O1279   1.255       .  A
C1278      C1429   1.428       .  S
O1280      C1282   1.258       .  A
Al1281     O1289   1.888       .  S
Al1281     O1291   1.891       .  S
Al1281     O1290   1.782       .  S
C1282      O1295   1.261       .  A
C1282      C1413   1.427       .  S
O1283      C1293   1.261       .  A
O1283     Al1285   1.914   1_556  S
O1284      C1297   1.258       .  A
O1284     Al1294   1.897       .  S
Al1285     O1295   1.918   1_554  S
O1286      C1293   1.261       .  A
O1287      C1296   1.259       .  A
O1287     Al1294   1.907       .  S
O1289      C1296   1.258       .  A
O1290     Al1294   1.790       .  S
O1291      C1292   1.256       .  A
C1292      C1415   1.434       .  S
C1293      C1409   1.447       .  S
C1296      C1427   1.424       .  S
C1297      O1298   1.262       .  A
C1297      C1412   1.442       .  S
C1299      C1300   1.538       .  S
C1299      C1305   1.530       .  S
C1299      C1303   1.532       .  S
C1299      C1414   1.459       .  S
C1300      H1307   1.089       .  S
C1301      C1302   1.526       .  S
C1301      C1446   1.435       .  S
C1302      C1304   1.537       .  S
C1302      H1308   1.112       .  S
C1303      H1309   1.086       .  S
C1304      C1421   1.435       .  S
C1305      H1310   1.089       .  S
C1305      C1306   1.357       .  D
C1306      C1433   1.431       .  S
C1311      C1312   1.537       .  S
C1311      C1317   1.541       .  S
C1311      C1315   1.531       .  S
C1311      C1416   1.470       .  S
C1312      H1319   1.086       .  S
C1312      C1313   1.365       .  D
C1313      C1436   1.437       .  S
C1314      C1318   1.527       .  S
C1314      C1316   1.542       .  S
C1314      H1320   1.112       .  S
C1315      H1321   1.087       .  S
C1316      C1423   1.444       .  S
C1317      H1322   1.087       .  S
C1318      C1444   1.440       .  S
C1323      C1405   1.479       .  S
C1323      C1407   1.485       .  S
C1323      C1410   1.479       .  S
C1323      C1419   1.485       .  S
C1324      C1325   1.538       .  S
C1324      C1330   1.530       .  S
C1324      C1328   1.533       .  S
C1324      C1401   1.459       .  S
C1325      H1332   1.089       .  S
C1326      C1327   1.526       .  S
C1326      C1470   1.435       .  S
C1327      C1329   1.537       .  S
C1327      H1333   1.112       .  S
C1328      H1334   1.084       .  S
C1329      C1403   1.435       .  S
C1330      H1335   1.089       .  S
C1330      C1331   1.357       .  D
C1331      C1462   1.431       .  S
O1336      C1351   1.262       .  A
O1336     Al1344   1.918       .  S
C1337      O1347   1.261       .  A
C1337      O1338   1.254       .  A
C1337      C1473   1.428       .  S
O1338     Al1340   1.890       .  S
O1339      C1341   1.258       .  A
O1339     Al1340   1.882       .  S
Al1340     O1348   1.888       .  S
Al1340     O1350   1.891       .  S
Al1340     O1349   1.782       .  S
C1341      O1354   1.261       .  A
C1341      C1402   1.427       .  S
O1342      C1352   1.261       .  A
O1342     Al1344   1.914       .  S
O1343      C1356   1.258       .  A
O1343     Al1353   1.897       .  S
Al1344     O1357   1.923       .  S
Al1344     O1354   1.918       .  S
Al1344     O1349   1.794       .  S
O1345      C1352   1.261       .  A
O1345     Al1353   1.918       .  S
O1346      C1355   1.259       .  A
O1346     Al1353   1.907       .  S
O1347     Al1353   1.908       .  S
O1348      C1355   1.258       .  A
O1349     Al1353   1.790       .  S
O1350      C1351   1.256       .  A
C1351      C1399   1.434       .  S
C1352      C1406   1.447       .  S
C1355      C1484   1.424       .  S
C1356      O1357   1.262       .  A
C1356      C1397   1.442       .  S
C1358      C1359   1.537       .  S
C1358      C1364   1.540       .  S
C1358      C1362   1.531       .  S
C1358      C1400   1.470       .  S
C1359      H1366   1.085       .  S
C1359      C1360   1.365       .  D
C1360      C1463   1.437       .  S
C1361      C1365   1.527       .  S
C1361      C1363   1.542       .  S
C1361      H1367   1.112       .  S
C1362      H1368   1.086       .  S
C1363      C1396   1.444       .  S
C1364      H1369   1.088       .  S
C1365      C1471   1.440       .  S
O1370      C1385   1.261       .  A
C1371      O1381   1.261       .  A
C1371      O1372   1.254       .  A
C1371      C1476   1.431       .  S
O1373      C1375   1.257       .  A
Al1374     O1382   1.889       .  S
Al1374     O1384   1.896       .  S
Al1374     O1383   1.788       .  S
C1375      O1388   1.262       .  A
C1375      C1404   1.428       .  S
O1376      C1386   1.261       .  A
O1376     Al1378   1.916   1_556  S
O1377      C1390   1.259       .  A
O1377     Al1387   1.907       .  S
Al1378     O1388   1.921   1_554  S
O1379      C1386   1.264       .  A
O1380      C1389   1.262       .  A
O1380     Al1387   1.914       .  S
O1382      C1389   1.258       .  A
O1383     Al1387   1.790       .  S
O1384      C1385   1.256       .  A
C1385      C1395   1.435       .  S
C1386      C1408   1.454       .  S
C1389      C1482   1.428       .  S
C1390      O1391   1.262       .  A
C1390      C1394   1.448       .  S
C1392      C1393   1.479       .  S
C1392      C1398   1.473       .  S
C1392      C1411   1.473       .  S
C1392      C1418   1.479       .  S
C1393      C1394   1.214       .  T
C1395      C1396   1.207       .  T
C1397      C1398   1.211       .  T
C1399      C1400   1.207       .  T
C1401      C1402   1.201       .  T
C1403      C1404   1.202       .  T
C1405      C1406   1.214       .  T
C1407      C1408   1.218       .  T
C1409      C1410   1.214       .  T
C1411      C1412   1.211       .  T
C1413      C1414   1.201       .  T
C1415      C1416   1.207       .  T
C1417      C1418   1.214       .  T
C1419      C1420   1.218       .  T
C1421      C1422   1.202       .  T
C1423      C1424   1.207       .  T
C1425      C1426   1.202       .  T
C1427      C1428   1.199       .  T
C1429      C1430   1.203       .  T
C1431      C1432   1.204       .  T
C1433      C1434   1.199       .  T
C1435      C1436   1.203       .  T
C1437      C1438   1.214       .  T
C1439      C1440   1.201       .  T
C1441      C1442   1.207       .  T
C1443      C1444   1.204       .  T
C1445      C1446   1.202       .  T
C1447      C1448   1.218       .  T
C1449      C1450   1.207       .  T
C1451      C1452   1.202       .  T
C1453      C1454   1.211       .  T
C1455      C1456   1.215       .  T
C1457      C1458   1.214       .  T
C1459      C1460   1.211       .  T
C1461      C1462   1.199       .  T
C1463      C1464   1.203       .  T
C1465      C1466   1.218       .  T
C1467      C1468   1.214       .  T
C1469      C1470   1.202       .  T
C1471      C1472   1.204       .  T
C1473      C1474   1.203       .  T
C1475      C1476   1.204       .  T
C1477      C1478   1.207       .  T
C1479      C1480   1.207       .  T
C1481      C1482   1.202       .  T
C1483      C1484   1.199       .  T
C1485      C1486   1.202       .  T
C1487      C1488   1.201       .  T
