geometry optimzed in LAMMPS
_audit_creation_date              2020-11-30 
_audit_creation_method            'lammps2cif' 
_symmetry_space_group_name_H-M    'P1' 
_symmetry_Int_Tables_number       1 
_symmetry_cell_setting            triclinic 
loop_ 
_symmetry_equiv_pos_as_xyz 
  x,y,z 
_cell_length_a                    28.581332443718942 
_cell_length_b                    28.508437603469375 
_cell_length_c                    24.47773208962603 
_cell_angle_alpha                 90.69315290297725 
_cell_angle_beta                  90.27610188290026 
_cell_angle_gamma                 92.977748680708 
loop_ 
_atom_site_label 
_atom_site_type_symbol 
_atom_site_fract_x 
_atom_site_fract_y 
_atom_site_fract_z 
_atom_site_charge 
C1          C  0.51285465  0.00198042  0.47461148     0.00880
C2          C  0.51987225  0.00001522  0.03035379     0.00820
C3          C  0.49212287  0.20687419  0.25363896     0.03440
C4          C  0.49090769  0.18316794  0.30359930    -0.12710
C5          C  0.49010324  0.13401222  0.30429678     0.00940
C6          C  0.49055257  0.10874279  0.25487200    -0.11240
C7          C  0.49119375  0.13205664  0.20471135     0.03430
C8          C  0.49177859  0.18120171  0.20432721    -0.10660
H9          H  0.49160168  0.20291863  0.34173362     0.09030
H10         H  0.49205783  0.07081122  0.25546728     0.06560
H11         H  0.49398341  0.19958738  0.16588854     0.06400
C12         C  0.50136530  0.79015487  0.24968951     0.03440
C13         C  0.50066924  0.81564170  0.29926679    -0.12710
C14         C  0.50269716  0.86483952  0.29904299     0.00940
C15         C  0.50140922  0.88830284  0.24923618    -0.11240
C16         C  0.49924229  0.86337167  0.19961277     0.03430
C17         C  0.50030562  0.81430863  0.19991189    -0.10660
H18         H  0.49934916  0.79747042  0.33782556     0.09030
H19         H  0.50308505  0.92638840  0.24912179     0.06560
H20         H  0.50031319  0.79496089  0.16152106     0.06400
C21         C  0.99939851  0.50039699  0.47091873     0.00880
C22         C  0.99912927  0.50031517  0.02711364     0.00870
C23         C  0.20605703  0.49544412  0.25101570     0.03440
C24         C  0.18178616  0.48255781  0.29898110    -0.12710
C25         C  0.13272065  0.48151719  0.30011395     0.00940
C26         C  0.10770750  0.49005835  0.25241395    -0.11240
C27         C  0.13117505  0.50177418  0.20426323     0.03430
C28         C  0.18014361  0.50492930  0.20370044    -0.10660
H29         H  0.20074144  0.47465519  0.33577201     0.09030
H30         H  0.06972577  0.48844876  0.25308676     0.06560
H31         H  0.19790931  0.51473903  0.16620880     0.06400
C32         C  0.79061398  0.50726772  0.24816165     0.03440
C33         C  0.81629827  0.51264676  0.29721619    -0.12710
C34         C  0.86512891  0.51077326  0.29711527     0.00940
C35         C  0.88831476  0.50283999  0.24789761    -0.11240
C36         C  0.86322352  0.49659025  0.19884005     0.03430
C37         C  0.81432067  0.49863909  0.19904617    -0.10660
H38         H  0.79833463  0.51831845  0.33544095     0.09030
H39         H  0.92616389  0.50151061  0.24777264     0.06560
H40         H  0.79486130  0.49398042  0.16110073     0.06400
O41         O  0.49301997  0.43324678  0.29242944    -0.71470
O42         O  0.50193278  0.56639959  0.28801010    -0.71690
O43         O  0.43136702  0.50069885  0.28730223    -0.71540
O44         O  0.56396683  0.49893774  0.29265846    -0.71550
O45         O  0.56616294  0.50047718  0.20409269    -0.71510
O46         O  0.43309379  0.49332463  0.19921455    -0.71530
O47         O  0.49919949  0.56336996  0.19932444    -0.71470
O48         O  0.49962913  0.43007601  0.20406274    -0.71660
V49         V  0.49766027  0.49975439  0.28840804     1.35240
V50         V  0.49955210  0.49681915  0.20331262     1.35170
C51         C  0.49513112  0.40903822  0.24907006     0.77770
C52         C  0.50052867  0.58751325  0.24299757     0.77830
C53         C  0.40937226  0.49678733  0.24233780     0.77700
C54         C  0.58777359  0.49999471  0.24928921     0.77660
C55         C  0.71458918  0.47692066  0.28416650    -0.05470
C56         C  0.73876878  0.50827623  0.24912731     0.00460
C57         C  0.71299030  0.53799837  0.21547312    -0.08110
C58         C  0.66382649  0.53256891  0.21533016    -0.05490
C59         C  0.63966187  0.50175063  0.25096135     0.00440
C60         C  0.66538548  0.47371819  0.28661043    -0.08020
C61         C  0.64135004  0.43968657  0.32611928     0.62360
H62         H  0.73482441  0.45462771  0.30969202     0.13050
H63         H  0.64390262  0.55425060  0.18862093     0.13060
C64         C  0.73510263  0.57673805  0.18040526     0.62590
F65         F  0.67292178  0.41186102  0.35172573    -0.22580
F66         F  0.60909744  0.41032433  0.29841778    -0.19910
F67         F  0.61880105  0.46443362  0.36617272    -0.19580
F68         F  0.73310528  0.56261695  0.12617729    -0.19640
F69         F  0.78112861  0.58853297  0.19453085    -0.19960
F70         F  0.71049003  0.61703187  0.18639429    -0.22630
C71         C  0.27977185  0.47804046  0.20357751    -0.05470
C72         C  0.25825945  0.49821295  0.24910306     0.00460
C73         C  0.28695375  0.52078250  0.29010902    -0.08110
C74         C  0.33566675  0.51722076  0.28700268    -0.05490
C75         C  0.35728334  0.49733564  0.24136541     0.00440
C76         C  0.32871888  0.47963172  0.19723403    -0.08020
C77         C  0.34876423  0.46365042  0.14302840     0.62360
H78         H  0.25763510  0.46136403  0.17221151     0.13050
H79         H  0.35736417  0.53225900  0.31986708     0.13060
C80         C  0.26828562  0.55047804  0.33638531     0.62590
F81         F  0.31402726  0.44774916  0.10667449    -0.22580
F82         F  0.37824775  0.42743729  0.15084592    -0.19910
F83         F  0.37324331  0.50104516  0.11900287    -0.19580
F84         F  0.26250517  0.52341432  0.38258672    -0.19640
F85         F  0.22628951  0.56942821  0.32274284    -0.19960
F86         F  0.29965758  0.58782806  0.34861578    -0.22630
C87         C  0.04597554  0.54252863  0.09836661    -0.05470
C88         C  0.04293583  0.50360004  0.06205260     0.00460
C89         C  0.07426886  0.46667832  0.07023974    -0.08110
C90         C  0.10484823  0.46977341  0.11544110    -0.05490
C91         C  0.10412669  0.50652609  0.15346772     0.00440
C92         C  0.07562539  0.54448853  0.14423870    -0.08020
C93         C  0.07583765  0.58638038  0.18320449     0.62360
H94         H  0.02233525  0.57046202  0.09257002     0.13050
H95         H  0.12869401  0.44217732  0.12291792     0.13060
C96         C  0.07796632  0.42412609  0.03308624     0.62590
F97         F  0.05040259  0.62229016  0.16261531    -0.22580
F98         F  0.12136024  0.60379594  0.19200139    -0.19910
F99         F  0.05628289  0.57309292  0.23253283    -0.19580
F100        F  0.10712593  0.43588636  0.99003201    -0.19640
F101        F  0.03484087  0.40783149  0.01415353    -0.19960
F102        F  0.09710059  0.38717439  0.06009847    -0.22630
C103        C  0.04202344  0.45165063  0.40678012    -0.05470
C104        C  0.04205669  0.49417528  0.43690238     0.00460
C105        C  0.07687046  0.53026517  0.42495571    -0.08110
C106        C  0.10876422  0.52242386  0.38283405    -0.05490
C107        C  0.10707135  0.48074161  0.35212371     0.00440
C108        C  0.07489436  0.44374486  0.36577882    -0.08020
C109        C  0.07578876  0.39611672  0.33757409     0.62360
H110        H  0.01515114  0.42460058  0.41482727     0.13050
H111        H  0.13360480  0.55062267  0.37127720     0.13060
C112        C  0.08128497  0.57880045  0.45087537     0.62590
F113        F  0.04479848  0.36345061  0.36118714    -0.22580
F114        F  0.12034997  0.37967156  0.34163826    -0.19910
F115        F  0.06388280  0.39963167  0.28307205    -0.19580
F116        F  0.12621319  0.58690090  0.47139750    -0.19640
F117        F  0.05068983  0.58494020  0.49276715    -0.19960
F118        F  0.07329171  0.61200747  0.41158930    -0.22630
C119        C  0.89355106  0.53258533  0.11444534    -0.05470
C120        C  0.88937267  0.49279347  0.14715802     0.00460
C121        C  0.91522227  0.45339662  0.13425263    -0.08110
C122        C  0.94797430  0.45699066  0.09177909    -0.05490
C123        C  0.95494361  0.49796918  0.06052811     0.00440
C124        C  0.92655294  0.53669217  0.07212530    -0.08020
C125        C  0.93069505  0.58449247  0.04575732     0.62360
H126        H  0.87318051  0.56246192  0.12495449     0.13050
H127        H  0.97075842  0.42837119  0.08501722     0.13060
C128        C  0.90845573  0.40787844  0.16547995     0.62590
F129        F  0.88901231  0.59288297  0.01958367    -0.22580
F130        F  0.96601321  0.58880469  0.00851929    -0.19910
F131        F  0.93931428  0.61875544  0.08562819    -0.19580
F132        F  0.86135525  0.39404620  0.16623674    -0.19640
F133        F  0.92458302  0.41399192  0.21851077    -0.19960
F134        F  0.93235500  0.37201395  0.14152975    -0.22630
C135        C  0.95534430  0.54621615  0.40549952    -0.05470
C136        C  0.95594687  0.50506960  0.43687340     0.00460
C137        C  0.92191391  0.46784142  0.42481339    -0.08110
C138        C  0.88997715  0.47334745  0.38178549    -0.05490
C139        C  0.89222238  0.51299292  0.34873028     0.00440
C140        C  0.92382003  0.55106251  0.36202030    -0.08020
C141        C  0.92463212  0.59631991  0.32988307     0.62360
H142        H  0.98212736  0.57377894  0.41290111     0.13050
H143        H  0.86505608  0.44462904  0.37114197     0.13060
C144        C  0.91845078  0.42032596  0.45187447     0.62590
F145        F  0.95343239  0.63119759  0.35422984    -0.22580
F146        F  0.87986464  0.61242061  0.32696299    -0.19910
F147        F  0.94083724  0.58862964  0.27761606    -0.19580
F148        F  0.87588484  0.41486519  0.47829273    -0.19640
F149        F  0.95333974  0.41427180  0.48904342    -0.19960
F150        F  0.92098040  0.38526851  0.41253586    -0.22630
C151        C  0.53792023  0.66457198  0.26822432    -0.05470
C152        C  0.50071648  0.63923520  0.24209756     0.00460
C153        C  0.46391497  0.66343207  0.21815800    -0.08110
C154        C  0.46516480  0.71270755  0.22256168    -0.05490
C155        C  0.50220970  0.73817892  0.24908178     0.00440
C156        C  0.54000974  0.71394926  0.27110683    -0.08020
C157        C  0.58322332  0.73973089  0.29560288     0.62360
H158        H  0.56571053  0.64518612  0.28601645     0.13050
H159        H  0.43710197  0.73196276  0.20519565     0.13060
C160        C  0.42297768  0.63733938  0.18939167     0.62590
F161        F  0.61898235  0.70970550  0.30445217    -0.22580
F162        F  0.57248181  0.75988646  0.34524943    -0.19910
F163        F  0.59986588  0.77433120  0.26048943    -0.19580
F164        F  0.40144388  0.60555414  0.22465441    -0.19640
F165        F  0.43878629  0.61361501  0.14406219    -0.19960
F166        F  0.38970153  0.66752141  0.17194363    -0.22630
C167        C  0.53397982  0.33451691  0.23704784    -0.05470
C168        C  0.49340978  0.35736557  0.25107431     0.00460
C169        C  0.45266989  0.33078992  0.26720605    -0.08110
C170        C  0.45360487  0.28153367  0.26718098    -0.05490
C171        C  0.49413860  0.25870858  0.25298431     0.00440
C172        C  0.53551303  0.28536288  0.23926009    -0.08020
C173        C  0.58139609  0.26212884  0.22923932     0.62360
H174        H  0.56477158  0.35563780  0.22521792     0.13050
H175        H  0.42267255  0.26028780  0.27833169     0.13060
C176        C  0.40825541  0.35430111  0.28328434     0.62590
F177        F  0.61833000  0.29490933  0.22255806    -0.22580
F178        F  0.57801194  0.23431621  0.18264539    -0.19910
F179        F  0.59173081  0.23456500  0.27339175    -0.19580
F180        F  0.39402886  0.38200953  0.24113809    -0.19640
F181        F  0.41648830  0.38202984  0.32937839    -0.19960
F182        F  0.37195381  0.32186034  0.29456212    -0.22630
C183        C  0.47659139  0.06699584  0.06801274    -0.05470
C184        C  0.51871613  0.04331213  0.06615356     0.00460
C185        C  0.55294830  0.05345997  0.10775360    -0.08110
C186        C  0.54244381  0.08363114  0.15091519    -0.05490
C187        C  0.49970615  0.10496585  0.15409799     0.00440
C188        C  0.46615160  0.09725761  0.11186100    -0.08020
C189        C  0.41835632  0.11789233  0.11531184     0.62360
H190        H  0.45000323  0.05823205  0.03747270     0.13050
H191        H  0.56775241  0.08993700  0.18372536     0.13060
C192        C  0.60048808  0.03255504  0.11013172     0.62590
F193        F  0.38945317  0.10288970  0.07231414    -0.22580
F194        F  0.42313612  0.16633045  0.11400373    -0.19910
F195        F  0.39676809  0.10434067  0.16348874    -0.19580
F196        F  0.63417083  0.06624758  0.12742529    -0.19640
F197        F  0.61429569  0.01683918  0.05994218    -0.19960
F198        F  0.59919031  0.99590492  0.14664856    -0.22630
C199        C  0.53673416  0.10768613  0.38245189    -0.05470
C200        C  0.49313372  0.10848099  0.35627907     0.00460
C201        C  0.45438480  0.08239950  0.37760949    -0.08110
C202        C  0.46182434  0.05199539  0.42106867    -0.05490
C203        C  0.50647237  0.04702628  0.44431672     0.00440
C204        C  0.54416175  0.07813402  0.42718919    -0.08020
C205        C  0.59140476  0.08219997  0.45603253     0.62360
H206        H  0.56528947  0.12979060  0.36641396     0.13050
H207        H  0.43279201  0.02985118  0.43485370     0.13060
C208        C  0.40559907  0.08605090  0.35367155     0.62590
F209        F  0.62295157  0.11245525  0.42948057    -0.22580
F210        F  0.61116796  0.03934414  0.45878384    -0.19910
F211        F  0.58576849  0.09997989  0.50806654    -0.19580
F212        F  0.40410861  0.06861807  0.30072677    -0.19640
F213        F  0.39415995  0.13260782  0.35352490    -0.19960
F214        F  0.37199474  0.06101306  0.38361124    -0.22630
C215        C  0.53873872  0.88895361  0.11425272    -0.05470
C216        C  0.49930209  0.88973576  0.14789415     0.00460
C217        C  0.46302140  0.91931144  0.13474731    -0.08110
C218        C  0.47074527  0.95227834  0.09345988    -0.05490
C219        C  0.51211947  0.95515392  0.06208018     0.00440
C220        C  0.54586897  0.92072407  0.07099685    -0.08020
C221        C  0.59059334  0.91562375  0.03910137     0.62360
H222        H  0.56559950  0.86473467  0.12371935     0.13050
H223        H  0.44505034  0.97832264  0.08809406     0.13060
C224        C  0.41630635  0.91645635  0.16429198     0.62590
F225        F  0.62865807  0.91950291  0.07432852    -0.22580
F226        F  0.59729519  0.94857470  0.99931616    -0.19910
F227        F  0.58933798  0.87169353  0.01435616    -0.19580
F228        F  0.42113559  0.93547383  0.21629409    -0.19640
F229        F  0.40000348  0.87003672  0.16767034    -0.19960
F230        F  0.38278650  0.94067129  0.13688306    -0.22630
C231        C  0.54909893  0.95341829  0.40395320    -0.05470
C232        C  0.51013486  0.95913425  0.43785262     0.00460
C233        C  0.46877701  0.92996760  0.42748014    -0.08110
C234        C  0.46878312  0.89697728  0.38400241    -0.05490
C235        C  0.50777285  0.89282682  0.35020491     0.00440
C236        C  0.54947348  0.91961645  0.36208371    -0.08020
C237        C  0.59442041  0.91264573  0.33067025     0.62360
H238        H  0.57947566  0.97685669  0.40891662     0.13050
H239        H  0.43701918  0.87596028  0.37438727     0.13060
C240        C  0.42268955  0.93302930  0.45739183     0.62590
F241        F  0.63260051  0.93655392  0.35504682    -0.22580
F242        F  0.59045269  0.92872212  0.27793316    -0.19910
F243        F  0.60336515  0.86543560  0.32914298    -0.19580
F244        F  0.38745598  0.94092327  0.42013422    -0.19640
F245        F  0.42296283  0.96846547  0.49585128    -0.19960
F246        F  0.41215120  0.89092166  0.48318008    -0.22630
C247        C  0.51285231  0.00197979  0.97460649     0.00880
C248        C  0.51987783  0.00001823  0.53035725     0.00820
C249        C  0.49210200  0.20688410  0.75362133     0.03440
C250        C  0.49089347  0.18318718  0.80358964    -0.12710
C251        C  0.49010625  0.13403058  0.80429929     0.00940
C252        C  0.49056581  0.10875415  0.75487941    -0.11240
C253        C  0.49119899  0.13205917  0.70471339     0.03430
C254        C  0.49176894  0.18120250  0.70431733    -0.10660
H255        H  0.49157697  0.20294503  0.84171860     0.09030
H256        H  0.49208069  0.07082363  0.75548276     0.06560
H257        H  0.49397150  0.19958167  0.66587414     0.06400
C258        C  0.50129700  0.79015548  0.74967128     0.03440
C259        C  0.50061908  0.81563506  0.79925572    -0.12710
C260        C  0.50267943  0.86483431  0.79904285     0.00940
C261        C  0.50140657  0.88830623  0.74924061    -0.11240
C262        C  0.49922517  0.86338223  0.69961328     0.03430
C263        C  0.50025528  0.81431842  0.69990073    -0.10660
H264        H  0.49928805  0.79745716  0.83780996     0.09030
H265        H  0.50310030  0.92639207  0.74913255     0.06560
H266        H  0.50025087  0.79497674  0.66150515     0.06400
C267        C  0.99893366  0.49936904  0.97087793     0.00880
C268        C  0.99980406  0.50129664  0.52716292     0.00870
C269        C  0.20595271  0.49513460  0.75153511     0.03440
C270        C  0.18180739  0.48189692  0.79946647    -0.12710
C271        C  0.13272459  0.48069020  0.80072660     0.00940
C272        C  0.10760989  0.48962649  0.75319095    -0.11240
C273        C  0.13098236  0.50177335  0.70510799     0.03430
C274        C  0.17994616  0.50494629  0.70442683    -0.10660
H275        H  0.20088300  0.47386520  0.83613600     0.09030
H276        H  0.06963167  0.48797471  0.75394607     0.06560
H277        H  0.19765217  0.51500536  0.66697903     0.06400
C278        C  0.79061860  0.50755664  0.74764455     0.03440
C279        C  0.81627382  0.51293309  0.79672760    -0.12710
C280        C  0.86511680  0.51112741  0.79667916     0.00940
C281        C  0.88834084  0.50324729  0.74748272    -0.11240
C282        C  0.86331213  0.49701174  0.69838702     0.03430
C283        C  0.81439215  0.49902210  0.69853159    -0.10660
H284        H  0.79827265  0.51851072  0.83494806     0.09030
H285        H  0.92618683  0.50188775  0.74740915     0.06560
H286        H  0.79497292  0.49438007  0.66055760     0.06400
O287        O  0.49295969  0.43325349  0.79226240    -0.71470
O288        O  0.50188369  0.56640039  0.78784194    -0.71690
O289        O  0.43130486  0.50071487  0.78723275    -0.71540
O290        O  0.56393050  0.49893781  0.79238342    -0.71550
O291        O  0.56602519  0.50050857  0.70381798    -0.71510
O292        O  0.43292605  0.49331374  0.69914405    -0.71530
O293        O  0.49902104  0.56337814  0.69916099    -0.71470
O294        O  0.49949347  0.43008032  0.70388770    -0.71660
V295        V  0.49760657  0.49975946  0.78823730     1.35240
V296        V  0.49939994  0.49682627  0.70314027     1.35170
C297        C  0.49503104  0.40904334  0.74890082     0.77770
C298        C  0.50041117  0.58751767  0.74283775     0.77830
C299        C  0.40925196  0.49678941  0.74230524     0.77700
C300        C  0.58769648  0.50002426  0.74897915     0.77660
C301        C  0.71461427  0.47706071  0.78365839    -0.05470
C302        C  0.73874334  0.50845174  0.74860591     0.00460
C303        C  0.71288736  0.53816115  0.71501651    -0.08110
C304        C  0.66371880  0.53266678  0.71491961    -0.05490
C305        C  0.63960684  0.50182138  0.75057134     0.00440
C306        C  0.66540591  0.47382378  0.78618667    -0.08020
C307        C  0.64144419  0.43981322  0.82577559     0.62360
H308        H  0.73489440  0.45478705  0.80915653     0.13050
H309        H  0.64374810  0.55434007  0.68825080     0.13060
C310        C  0.73491323  0.57698834  0.68001172     0.62590
F311        F  0.67306916  0.41203768  0.85136719    -0.22580
F312        F  0.60917632  0.41040334  0.79816289    -0.19910
F313        F  0.61892642  0.46458202  0.86583665    -0.19580
F314        F  0.73285660  0.56297065  0.62575144    -0.19640
F315        F  0.78094730  0.58880710  0.69407538    -0.19960
F316        F  0.71026320  0.61724198  0.68616222    -0.22630
C317        C  0.27958559  0.47790580  0.70382624    -0.05470
C318        C  0.25813669  0.49800346  0.74943690     0.00460
C319        C  0.28685830  0.52066280  0.79033029    -0.08110
C320        C  0.33557962  0.51719877  0.78710581    -0.05490
C321        C  0.35715138  0.49731628  0.74142735     0.00440
C322        C  0.32852615  0.47958224  0.69735441    -0.08020
C323        C  0.34849371  0.46367305  0.64307758     0.62360
H324        H  0.25739598  0.46123687  0.67250088     0.13050
H325        H  0.35730726  0.53230611  0.81990469     0.13060
C326        C  0.26817759  0.55037003  0.83658083     0.62590
F327        F  0.31370540  0.44777589  0.60678642    -0.22580
F328        F  0.37802649  0.42748200  0.65076537    -0.19910
F329        F  0.37289809  0.50111222  0.61904821    -0.19580
F330        F  0.26261996  0.52338326  0.88286897    -0.19640
F331        F  0.22605037  0.56910173  0.82303422    -0.19960
F332        F  0.29943082  0.58787087  0.84858512    -0.22630
C333        C  0.04636820  0.54325880  0.59885765    -0.05470
C334        C  0.04366677  0.50462541  0.56208405     0.00460
C335        C  0.07505277  0.46771819  0.57019784    -0.08110
C336        C  0.10503717  0.47034647  0.61593963    -0.05490
C337        C  0.10393940  0.50675743  0.65434452     0.00440
C338        C  0.07552549  0.54479682  0.64517474    -0.08020
C339        C  0.07528181  0.58629282  0.68467099     0.62360
H340        H  0.02275376  0.57122121  0.59308791     0.13050
H341        H  0.12889360  0.44276433  0.62341218     0.13060
C342        C  0.07960104  0.42585460  0.53219827     0.62590
F343        F  0.04987327  0.62231263  0.66430376    -0.22580
F344        F  0.12068044  0.60378130  0.69416393    -0.19910
F345        F  0.05537772  0.57242647  0.73360791    -0.19580
F346        F  0.10807011  0.43901537  0.48904224    -0.19640
F347        F  0.03664415  0.40867853  0.51362860    -0.19960
F348        F  0.10010272  0.38909882  0.55808495    -0.22630
C349        C  0.04168202  0.45054288  0.90691984    -0.05470
C350        C  0.04177777  0.49298004  0.93720307     0.00460
C351        C  0.07695749  0.52886414  0.92580160    -0.08110
C352        C  0.10914112  0.52093357  0.88401927    -0.05490
C353        C  0.10715759  0.47952468  0.85281338     0.00440
C354        C  0.07463606  0.44266494  0.86598270    -0.08020
C355        C  0.07522860  0.39521580  0.83731068     0.62360
H356        H  0.01458935  0.42362331  0.91465806     0.13050
H357        H  0.13430572  0.54899541  0.87291580     0.13060
C358        C  0.08152513  0.57732410  0.95190367     0.62590
F359        F  0.04394901  0.36260059  0.86053016    -0.22580
F360        F  0.11963553  0.37839238  0.84130731    -0.19910
F361        F  0.06346791  0.39921026  0.78282575    -0.19580
F362        F  0.12601900  0.58463661  0.97393373    -0.19640
F363        F  0.04997336  0.58396736  0.99266358    -0.19960
F364        F  0.07508368  0.61075511  0.91240707    -0.22630
C365        C  0.89375006  0.53309283  0.61408464    -0.05470
C366        C  0.88959144  0.49328146  0.64677175     0.00460
C367        C  0.91575333  0.45404369  0.63407424    -0.08110
C368        C  0.94875280  0.45783199  0.59187020    -0.05490
C369        C  0.95563624  0.49882117  0.56063217     0.00440
C370        C  0.92699485  0.53739180  0.57203531    -0.08020
C371        C  0.93112815  0.58524150  0.54577888     0.62360
H372        H  0.87318500  0.56286247  0.62445585     0.13050
H373        H  0.97174111  0.42934848  0.58526152     0.13060
C374        C  0.90901742  0.40846592  0.66519308     0.62590
F375        F  0.88963064  0.59344710  0.51910190    -0.22580
F376        F  0.96679250  0.58980270  0.50900756    -0.19910
F377        F  0.93921007  0.61948331  0.58579470    -0.19580
F378        F  0.86195977  0.39443751  0.66560460    -0.19640
F379        F  0.92485608  0.41455976  0.71833934    -0.19960
F380        F  0.93318912  0.37274403  0.64135013    -0.22630
C381        C  0.95567083  0.54555574  0.90507759    -0.05470
C382        C  0.95570347  0.50442509  0.93654350     0.00460
C383        C  0.92123465  0.46760064  0.92448608    -0.08110
C384        C  0.88941108  0.47349040  0.88143717    -0.05490
C385        C  0.89216544  0.51310231  0.84833746     0.00440
C386        C  0.92423220  0.55079618  0.86160097    -0.08020
C387        C  0.92556482  0.59611262  0.82954134     0.62360
H388        H  0.98276068  0.57281698  0.91250195     0.13050
H389        H  0.86415355  0.44506098  0.87080745     0.13060
C390        C  0.91714850  0.42011697  0.95155716     0.62590
F391        F  0.95467639  0.63067184  0.85400660    -0.22580
F392        F  0.88099765  0.61269765  0.82658142    -0.19910
F393        F  0.94175977  0.58834423  0.77728942    -0.19580
F394        F  0.87453870  0.41522110  0.97797584    -0.19640
F395        F  0.95192759  0.41361785  0.98871397    -0.19960
F396        F  0.91922625  0.38499374  0.91223048    -0.22630
C397        C  0.53781823  0.66455375  0.76809952    -0.05470
C398        C  0.50060618  0.63923973  0.74196104     0.00460
C399        C  0.46380012  0.66345782  0.71806244    -0.08110
C400        C  0.46506039  0.71273147  0.72251149    -0.05490
C401        C  0.50211643  0.73817890  0.74904164     0.00440
C402        C  0.53991522  0.71392794  0.77103238    -0.08020
C403        C  0.58313404  0.73968442  0.79554854     0.62360
H404        H  0.56560869  0.64515127  0.78586492     0.13050
H405        H  0.43699887  0.73200442  0.70517121     0.13060
C406        C  0.42284800  0.63739101  0.68929425     0.62590
F407        F  0.61888326  0.70964358  0.80437922    -0.22580
F408        F  0.57239432  0.75981700  0.84520842    -0.19910
F409        F  0.59978882  0.77429907  0.76046094    -0.19580
F410        F  0.40131968  0.60558612  0.72453865    -0.19640
F411        F  0.43863600  0.61369253  0.64393539    -0.19960
F412        F  0.38957228  0.66759195  0.67189077    -0.22630
C413        C  0.53390978  0.33453287  0.73695517    -0.05470
C414        C  0.49331868  0.35737064  0.75091779     0.00460
C415        C  0.45258003  0.33078647  0.76704000    -0.08110
C416        C  0.45354004  0.28153204  0.76707098    -0.05490
C417        C  0.49409640  0.25871828  0.75294033     0.00440
C418        C  0.53546559  0.28538305  0.73922057    -0.08020
C419        C  0.58136597  0.26216549  0.72925914     0.62360
H420        H  0.56470051  0.35566020  0.72513633     0.13050
H421        H  0.42260963  0.26027909  0.77821207     0.13060
C422        C  0.40814190  0.35428515  0.78305108     0.62590
F423        F  0.61828694  0.29495815  0.72256260    -0.22580
F424        F  0.57801651  0.23431125  0.68269660    -0.19910
F425        F  0.59169458  0.23464706  0.77345302    -0.19580
F426        F  0.39392558  0.38194488  0.74085713    -0.19640
F427        F  0.41633176  0.38206025  0.82911637    -0.19960
F428        F  0.37184987  0.32183548  0.79433715    -0.22630
C429        C  0.47659820  0.06699861  0.56801533    -0.05470
C430        C  0.51872324  0.04331574  0.56615567     0.00460
C431        C  0.55295450  0.05346171  0.60775709    -0.08110
C432        C  0.54244870  0.08363026  0.65092055    -0.05490
C433        C  0.49971061  0.10496415  0.65410336     0.00440
C434        C  0.46615654  0.09725703  0.61186543    -0.08020
C435        C  0.41835908  0.11788771  0.61531710     0.62360
H436        H  0.45001052  0.05823541  0.53747463     0.13050
H437        H  0.56775729  0.08993598  0.68373075     0.13060
C438        C  0.60049501  0.03255835  0.61013439     0.62590
F439        F  0.38945405  0.10287696  0.57232444    -0.22580
F440        F  0.42313358  0.16632572  0.61400013    -0.19910
F441        F  0.39677517  0.10434002  0.66349800    -0.19580
F442        F  0.63417743  0.06625368  0.62742148    -0.19640
F443        F  0.61430048  0.01683768  0.55994613    -0.19960
F444        F  0.59920037  0.99591182  0.64665609    -0.22630
C445        C  0.53673329  0.10770245  0.88246076    -0.05470
C446        C  0.49313370  0.10850221  0.85628642     0.00460
C447        C  0.45438590  0.08241218  0.87760790    -0.08110
C448        C  0.46182504  0.05199903  0.92105957    -0.05490
C449        C  0.50647173  0.04702787  0.94431080     0.00440
C450        C  0.54416073  0.07814024  0.92719036    -0.08020
C451        C  0.59140463  0.08219876  0.95603173     0.62360
H452        H  0.56528893  0.12980954  0.86642819     0.13050
H453        H  0.43279321  0.02984965  0.93483593     0.13060
C454        C  0.40560135  0.08606287  0.85366635     0.62590
F455        F  0.62295281  0.11245554  0.92948400    -0.22580
F456        F  0.61116438  0.03934058  0.95877337    -0.19910
F457        F  0.58577126  0.09997196  0.00806926    -0.19580
F458        F  0.40411603  0.06863797  0.80071808    -0.19640
F459        F  0.39415828  0.13261871  0.85352795    -0.19960
F460        F  0.37199684  0.06101763  0.88359797    -0.22630
C461        C  0.53873279  0.88896193  0.61426205    -0.05470
C462        C  0.49929471  0.88975026  0.64790025     0.00460
C463        C  0.46301728  0.91932796  0.63475141    -0.08110
C464        C  0.47074460  0.95229015  0.59346115    -0.05490
C465        C  0.51212029  0.95515988  0.56208400     0.00440
C466        C  0.54586723  0.92072883  0.57100442    -0.08020
C467        C  0.59059162  0.91562330  0.53911029     0.62360
H468        H  0.56559013  0.86473993  0.62373145     0.13050
H469        H  0.44505187  0.97833588  0.58809138     0.13060
C470        C  0.41630300  0.91647959  0.66429800     0.62590
F471        F  0.62865602  0.91950190  0.57433794    -0.22580
F472        F  0.59729636  0.94857138  0.49932221    -0.19910
F473        F  0.58933352  0.87169154  0.51436870    -0.19580
F474        F  0.42113954  0.93548487  0.71630530    -0.19640
F475        F  0.39998849  0.87006270  0.66766403    -0.19960
F476        F  0.38278885  0.94070979  0.63689917    -0.22630
C477        C  0.54909283  0.95341026  0.90395000    -0.05470
C478        C  0.51012947  0.95913248  0.93784873     0.00460
C479        C  0.46877060  0.92996593  0.92748176    -0.08110
C480        C  0.46877379  0.89697150  0.88400782    -0.05490
C481        C  0.50776238  0.89281520  0.85020975     0.00440
C482        C  0.54946548  0.91960198  0.86208689    -0.08020
C483        C  0.59441333  0.91262112  0.83067918     0.62360
H484        H  0.57947093  0.97684793  0.90890919     0.13050
H485        H  0.43700783  0.87595703  0.87439473     0.13060
C486        C  0.42268448  0.93303252  0.95739511     0.62590
F487        F  0.63259651  0.93651662  0.85506503    -0.22580
F488        F  0.59045689  0.92870387  0.77794354    -0.19910
F489        F  0.60334495  0.86540776  0.82914763    -0.19580
F490        F  0.38744985  0.94092338  0.92013774    -0.19640
F491        F  0.42296029  0.96847317  0.99584946    -0.19960
F492        F  0.41214595  0.89092802  0.98319000    -0.22630
loop_ 
_geom_bond_atom_site_label_1 
_geom_bond_atom_site_label_2 
_geom_bond_distance 
_geom_bond_site_symmetry_2 
_ccdc_geom_bond_type 
C1          C203   1.509       .  S
C1          C232   1.507   1_545  S
C1          C248   1.380       .  D
C2          C184   1.507       .  S
C2          C219   1.511   1_545  S
C2          C247   1.381   1_554  D
C3            C4   1.404       .  A
C3            C8   1.404       .  A
C3          C171   1.476       .  S
C4            C5   1.401       .  A
C4            H9   1.084       .  S
C5            C6   1.401       .  A
C5          C200   1.478       .  S
C6            C7   1.403       .  A
C6           H10   1.085       .  S
C7            C8   1.400       .  A
C7          C187   1.480       .  S
C8           H11   1.083       .  S
C12          C13   1.408       .  A
C12          C17   1.408       .  A
C12         C155   1.483       .  S
C13          C14   1.401       .  A
C13          H18   1.082       .  S
C14          C15   1.399       .  A
C14         C235   1.479       .  S
C15          C16   1.399       .  A
C15          H19   1.084       .  S
C16          C17   1.401       .  A
C16         C216   1.480       .  S
C17          H20   1.084       .  S
C21         C104   1.497   1_655  S
C21         C136   1.505       .  S
C21         C268   1.377       .  D
C22          C88   1.511   1_655  S
C22         C123   1.507       .  S
C22         C267   1.376   1_554  D
C23          C24   1.409       .  A
C23          C28   1.408       .  A
C23          C72   1.491       .  S
C24          C25   1.402       .  A
C24          H29   1.081       .  S
C25          C26   1.397       .  A
C25         C107   1.472       .  S
C26          C27   1.394       .  A
C26          H30   1.084       .  S
C27          C28   1.398       .  A
C27          C91   1.472       .  S
C28          H31   1.084       .  S
C32          C33   1.407       .  A
C32          C37   1.408       .  A
C32          C56   1.484       .  S
C33          C34   1.399       .  A
C33          H38   1.084       .  S
C34          C35   1.399       .  A
C34         C139   1.478       .  S
C35          C36   1.400       .  A
C35          H39   1.084       .  S
C36          C37   1.402       .  A
C36         C120   1.478       .  S
C37          H40   1.084       .  S
O41          V49   1.898       .  S
O41          C51   1.262       .  A
O42          V49   1.898       .  S
O42          C52   1.263       .  A
O43          V49   1.896       .  S
O43          C53   1.266       .  A
O44          V49   1.899       .  S
O44          C54   1.264       .  A
O45          V50   1.901       .  S
O45          C54   1.265       .  A
O46          V50   1.899       .  S
O46          C53   1.263       .  A
O47          V50   1.901       .  S
O47          C52   1.264       .  A
O48          V50   1.903       .  S
O48          C51   1.265       .  A
V49          V50   2.085       .  T
C51         C168   1.473       .  S
C52         C152   1.475       .  S
C53          C75   1.490       .  S
C54          C59   1.482       .  S
C55          C56   1.404       .  A
C55          C60   1.406       .  A
C55          H62   1.083       .  S
C56          C57   1.420       .  A
C57          C58   1.406       .  A
C57          C64   1.520       .  S
C58          C59   1.404       .  A
C58          H63   1.085       .  S
C59          C60   1.419       .  A
C60          C61   1.519       .  S
C61          F65   1.385       .  S
C61          F66   1.382       .  S
C61          F67   1.382       .  S
C64          F68   1.382       .  S
C64          F69   1.382       .  S
C64          F70   1.384       .  S
C71          C72   1.407       .  A
C71          C76   1.407       .  A
C71          H78   1.082       .  S
C72          C73   1.420       .  A
C73          C74   1.404       .  A
C73          C80   1.521       .  S
C74          C75   1.407       .  A
C74          H79   1.084       .  S
C75          C76   1.423       .  A
C76          C77   1.522       .  S
C77          F81   1.385       .  S
C77          F82   1.381       .  S
C77          F83   1.383       .  S
C80          F84   1.382       .  S
C80          F85   1.383       .  S
C80          F86   1.385       .  S
C87          C88   1.412       .  A
C87          C92   1.402       .  A
C87          H94   1.081       .  S
C88          C89   1.432       .  A
C89          C90   1.406       .  A
C89          C96   1.516       .  S
C90          C91   1.394       .  A
C90          H95   1.084       .  S
C91          C92   1.408       .  A
C92          C93   1.519       .  S
C93          F97   1.384       .  S
C93          F98   1.383       .  S
C93          F99   1.382       .  S
C96         F100   1.380   1_554  S
C96         F101   1.371       .  S
C96         F102   1.385       .  S
C103        C104   1.411       .  A
C103        C108   1.402       .  A
C103        H110   1.080       .  S
C104        C105   1.428       .  A
C105        C106   1.403       .  A
C105        C112   1.514       .  S
C106        C107   1.397       .  A
C106        H111   1.086       .  S
C107        C108   1.407       .  A
C108        C109   1.517       .  S
C109        F113   1.385       .  S
C109        F114   1.383       .  S
C109        F115   1.381       .  S
C112        F116   1.384       .  S
C112        F117   1.366       .  S
C112        F118   1.384       .  S
C119        C120   1.397       .  A
C119        C124   1.406       .  A
C119        H126   1.085       .  S
C120        C121   1.410       .  A
C121        C122   1.403       .  A
C121        C128   1.518       .  S
C122        C123   1.410       .  A
C122        H127   1.082       .  S
C123        C124   1.430       .  A
C124        C125   1.514       .  S
C125        F129   1.383       .  S
C125        F130   1.365       .  S
C125        F131   1.385       .  S
C128        F132   1.383       .  S
C128        F133   1.381       .  S
C128        F134   1.385       .  S
C135        C136   1.411       .  A
C135        C140   1.404       .  A
C135        H142   1.081       .  S
C136        C137   1.429       .  A
C137        C138   1.406       .  A
C137        C144   1.514       .  S
C138        C139   1.397       .  A
C138        H143   1.085       .  S
C139        C140   1.409       .  A
C140        C141   1.518       .  S
C141        F145   1.385       .  S
C141        F146   1.383       .  S
C141        F147   1.382       .  S
C144        F148   1.383       .  S
C144        F149   1.366       .  S
C144        F150   1.384       .  S
C151        C152   1.401       .  A
C151        C156   1.407       .  A
C151        H158   1.084       .  S
C152        C153   1.416       .  A
C153        C154   1.406       .  A
C153        C160   1.519       .  S
C154        C155   1.404       .  A
C154        H159   1.083       .  S
C155        C156   1.420       .  A
C156        C157   1.521       .  S
C157        F161   1.385       .  S
C157        F162   1.381       .  S
C157        F163   1.383       .  S
C160        F164   1.382       .  S
C160        F165   1.382       .  S
C160        F166   1.385       .  S
C167        C168   1.401       .  A
C167        C172   1.406       .  A
C167        H174   1.083       .  S
C168        C169   1.416       .  A
C169        C170   1.406       .  A
C169        C176   1.517       .  S
C170        C171   1.401       .  A
C170        H175   1.083       .  S
C171        C172   1.416       .  A
C172        C173   1.519       .  S
C173        F177   1.385       .  S
C173        F178   1.381       .  S
C173        F179   1.384       .  S
C176        F180   1.379       .  S
C176        F181   1.382       .  S
C176        F182   1.385       .  S
C183        C184   1.411       .  A
C183        C188   1.412       .  A
C183        H190   1.081       .  S
C184        C185   1.425       .  A
C185        C186   1.398       .  A
C185        C192   1.513       .  S
C186        C187   1.395       .  A
C186        H191   1.085       .  S
C187        C188   1.414       .  A
C188        C189   1.517       .  S
C189        F193   1.385       .  S
C189        F194   1.381       .  S
C189        F195   1.383       .  S
C192        F196   1.385       .  S
C192        F197   1.369       .  S
C192        F198   1.382   1_545  S
C199        C200   1.400       .  A
C199        C204   1.412       .  A
C199        H206   1.083       .  S
C200        C201   1.408       .  A
C201        C202   1.403       .  A
C201        C208   1.519       .  S
C202        C203   1.409       .  A
C202        H207   1.074       .  S
C203        C204   1.427       .  A
C204        C205   1.519       .  S
C205        F209   1.385       .  S
C205        F210   1.375       .  S
C205        F211   1.378       .  S
C208        F212   1.382       .  S
C208        F213   1.383       .  S
C208        F214   1.385       .  S
C215        C216   1.400       .  A
C215        C220   1.410       .  A
C215        H222   1.085       .  S
C216        C217   1.409       .  A
C217        C218   1.399       .  A
C217        C224   1.520       .  S
C218        C219   1.413       .  A
C218        H223   1.080       .  S
C219        C220   1.429       .  A
C220        C221   1.514       .  S
C221        F225   1.384       .  S
C221        F226   1.368   1_554  S
C221        F227   1.383       .  S
C224        F228   1.381       .  S
C224        F229   1.384       .  S
C224        F230   1.385       .  S
C231        C232   1.407       .  A
C231        C236   1.399       .  A
C231        H238   1.073       .  S
C232        C233   1.429       .  A
C233        C234   1.412       .  A
C233        C240   1.516       .  S
C234        C235   1.400       .  A
C234        H239   1.085       .  S
C235        C236   1.409       .  A
C236        C237   1.521       .  S
C237        F241   1.385       .  S
C237        F242   1.381       .  S
C237        F243   1.383       .  S
C240        F244   1.384       .  S
C240        F245   1.372       .  S
C240        F246   1.383       .  S
C247        C449   1.509       .  S
C247        C478   1.507   1_545  S
C248        C430   1.507       .  S
C248        C465   1.511   1_545  S
C249        C250   1.404       .  A
C249        C254   1.404       .  A
C249        C417   1.476       .  S
C250        C251   1.401       .  A
C250        H255   1.084       .  S
C251        C252   1.401       .  A
C251        C446   1.478       .  S
C252        C253   1.403       .  A
C252        H256   1.085       .  S
C253        C254   1.400       .  A
C253        C433   1.480       .  S
C254        H257   1.083       .  S
C258        C259   1.408       .  A
C258        C263   1.408       .  A
C258        C401   1.483       .  S
C259        C260   1.401       .  A
C259        H264   1.082       .  S
C260        C261   1.399       .  A
C260        C481   1.479       .  S
C261        C262   1.399       .  A
C261        H265   1.084       .  S
C262        C263   1.401       .  A
C262        C462   1.480       .  S
C263        H266   1.084       .  S
C267        C350   1.497   1_655  S
C267        C382   1.505       .  S
C268        C334   1.512   1_655  S
C268        C369   1.507       .  S
C269        C270   1.409       .  A
C269        C274   1.408       .  A
C269        C318   1.491       .  S
C270        C271   1.402       .  A
C270        H275   1.081       .  S
C271        C272   1.397       .  A
C271        C353   1.472       .  S
C272        C273   1.395       .  A
C272        H276   1.084       .  S
C273        C274   1.398       .  A
C273        C337   1.472       .  S
C274        H277   1.084       .  S
C278        C279   1.407       .  A
C278        C283   1.409       .  A
C278        C302   1.485       .  S
C279        C280   1.400       .  A
C279        H284   1.084       .  S
C280        C281   1.399       .  A
C280        C385   1.478       .  S
C281        C282   1.400       .  A
C281        H285   1.084       .  S
C282        C283   1.402       .  A
C282        C366   1.478       .  S
C283        H286   1.084       .  S
O287        V295   1.898       .  S
O287        C297   1.262       .  A
O288        V295   1.898       .  S
O288        C298   1.263       .  A
O289        V295   1.897       .  S
O289        C299   1.266       .  A
O290        V295   1.899       .  S
O290        C300   1.264       .  A
O291        V296   1.902       .  S
O291        C300   1.265       .  A
O292        V296   1.899       .  S
O292        C299   1.263       .  A
O293        V296   1.902       .  S
O293        C298   1.264       .  A
O294        V296   1.903       .  S
O294        C297   1.265       .  A
V295        V296   2.085       .  T
C297        C414   1.473       .  S
C298        C398   1.475       .  S
C299        C321   1.490       .  S
C300        C305   1.482       .  S
C301        C302   1.405       .  A
C301        C306   1.406       .  A
C301        H308   1.083       .  S
C302        C303   1.420       .  A
C303        C304   1.406       .  A
C303        C310   1.520       .  S
C304        C305   1.404       .  A
C304        H309   1.085       .  S
C305        C306   1.419       .  A
C306        C307   1.519       .  S
C307        F311   1.385       .  S
C307        F312   1.382       .  S
C307        F313   1.382       .  S
C310        F314   1.382       .  S
C310        F315   1.382       .  S
C310        F316   1.384       .  S
C317        C318   1.406       .  A
C317        C322   1.407       .  A
C317        H324   1.082       .  S
C318        C319   1.419       .  A
C319        C320   1.404       .  A
C319        C326   1.521       .  S
C320        C321   1.407       .  A
C320        H325   1.084       .  S
C321        C322   1.423       .  A
C322        C323   1.522       .  S
C323        F327   1.385       .  S
C323        F328   1.381       .  S
C323        F329   1.383       .  S
C326        F330   1.382       .  S
C326        F331   1.383       .  S
C326        F332   1.385       .  S
C333        C334   1.413       .  A
C333        C338   1.403       .  A
C333        H340   1.081       .  S
C334        C335   1.433       .  A
C335        C336   1.406       .  A
C335        C342   1.516       .  S
C336        C337   1.394       .  A
C336        H341   1.084       .  S
C337        C338   1.408       .  A
C338        C339   1.519       .  S
C339        F343   1.384       .  S
C339        F344   1.383       .  S
C339        F345   1.382       .  S
C342        F346   1.380       .  S
C342        F347   1.371       .  S
C342        F348   1.385       .  S
C349        C350   1.411       .  A
C349        C354   1.403       .  A
C349        H356   1.081       .  S
C350        C351   1.428       .  A
C351        C352   1.403       .  A
C351        C358   1.514       .  S
C352        C353   1.397       .  A
C352        H357   1.086       .  S
C353        C354   1.408       .  A
C354        C355   1.517       .  S
C355        F359   1.385       .  S
C355        F360   1.383       .  S
C355        F361   1.381       .  S
C358        F362   1.384       .  S
C358        F363   1.366       .  S
C358        F364   1.384       .  S
C365        C366   1.397       .  A
C365        C370   1.406       .  A
C365        H372   1.085       .  S
C366        C367   1.410       .  A
C367        C368   1.404       .  A
C367        C374   1.518       .  S
C368        C369   1.410       .  A
C368        H373   1.082       .  S
C369        C370   1.430       .  A
C370        C371   1.514       .  S
C371        F375   1.383       .  S
C371        F376   1.365       .  S
C371        F377   1.385       .  S
C374        F378   1.383       .  S
C374        F379   1.381       .  S
C374        F380   1.385       .  S
C381        C382   1.411       .  A
C381        C386   1.404       .  A
C381        H388   1.081       .  S
C382        C383   1.429       .  A
C383        C384   1.406       .  A
C383        C390   1.514       .  S
C384        C385   1.397       .  A
C384        H389   1.085       .  S
C385        C386   1.409       .  A
C386        C387   1.519       .  S
C387        F391   1.385       .  S
C387        F392   1.383       .  S
C387        F393   1.382       .  S
C390        F394   1.383       .  S
C390        F395   1.365       .  S
C390        F396   1.384       .  S
C397        C398   1.401       .  A
C397        C402   1.407       .  A
C397        H404   1.084       .  S
C398        C399   1.416       .  A
C399        C400   1.406       .  A
C399        C406   1.519       .  S
C400        C401   1.404       .  A
C400        H405   1.083       .  S
C401        C402   1.420       .  A
C402        C403   1.521       .  S
C403        F407   1.385       .  S
C403        F408   1.381       .  S
C403        F409   1.383       .  S
C406        F410   1.382       .  S
C406        F411   1.382       .  S
C406        F412   1.385       .  S
C413        C414   1.401       .  A
C413        C418   1.406       .  A
C413        H420   1.083       .  S
C414        C415   1.416       .  A
C415        C416   1.406       .  A
C415        C422   1.517       .  S
C416        C417   1.401       .  A
C416        H421   1.083       .  S
C417        C418   1.416       .  A
C418        C419   1.519       .  S
C419        F423   1.385       .  S
C419        F424   1.381       .  S
C419        F425   1.384       .  S
C422        F426   1.379       .  S
C422        F427   1.382       .  S
C422        F428   1.385       .  S
C429        C430   1.411       .  A
C429        C434   1.412       .  A
C429        H436   1.081       .  S
C430        C431   1.425       .  A
C431        C432   1.398       .  A
C431        C438   1.513       .  S
C432        C433   1.395       .  A
C432        H437   1.085       .  S
C433        C434   1.414       .  A
C434        C435   1.517       .  S
C435        F439   1.385       .  S
C435        F440   1.381       .  S
C435        F441   1.383       .  S
C438        F442   1.385       .  S
C438        F443   1.369       .  S
C438        F444   1.382   1_545  S
C445        C446   1.400       .  A
C445        C450   1.412       .  A
C445        H452   1.083       .  S
C446        C447   1.408       .  A
C447        C448   1.403       .  A
C447        C454   1.519       .  S
C448        C449   1.409       .  A
C448        H453   1.074       .  S
C449        C450   1.427       .  A
C450        C451   1.519       .  S
C451        F455   1.385       .  S
C451        F456   1.375       .  S
C451        F457   1.378   1_556  S
C454        F458   1.382       .  S
C454        F459   1.383       .  S
C454        F460   1.385       .  S
C461        C462   1.400       .  A
C461        C466   1.410       .  A
C461        H468   1.085       .  S
C462        C463   1.408       .  A
C463        C464   1.399       .  A
C463        C470   1.520       .  S
C464        C465   1.413       .  A
C464        H469   1.080       .  S
C465        C466   1.429       .  A
C466        C467   1.514       .  S
C467        F471   1.384       .  S
C467        F472   1.368       .  S
C467        F473   1.383       .  S
C470        F474   1.381       .  S
C470        F475   1.384       .  S
C470        F476   1.385       .  S
C477        C478   1.407       .  A
C477        C482   1.399       .  A
C477        H484   1.073       .  S
C478        C479   1.429       .  A
C479        C480   1.412       .  A
C479        C486   1.516       .  S
C480        C481   1.400       .  A
C480        H485   1.085       .  S
C481        C482   1.409       .  A
C482        C483   1.521       .  S
C483        F487   1.385       .  S
C483        F488   1.381       .  S
C483        F489   1.383       .  S
C486        F490   1.384       .  S
C486        F491   1.372       .  S
C486        F492   1.383       .  S
