geometry optimzed in LAMMPS
_audit_creation_date              2020-11-30 
_audit_creation_method            'lammps2cif' 
_symmetry_space_group_name_H-M    'P1' 
_symmetry_Int_Tables_number       1 
_symmetry_cell_setting            triclinic 
loop_ 
_symmetry_equiv_pos_as_xyz 
  x,y,z 
_cell_length_a                    27.133829 
_cell_length_b                    27.343574004546348 
_cell_length_c                    27.81190805866238 
_cell_angle_alpha                 90.19933585784484 
_cell_angle_beta                  90.01397027031163 
_cell_angle_gamma                 90.13308647617791 
loop_ 
_atom_site_label 
_atom_site_type_symbol 
_atom_site_fract_x 
_atom_site_fract_y 
_atom_site_fract_z 
_atom_site_charge 
C1          C  0.31301203  0.33171498  0.15525336    -0.01800
C2          C  0.30317378  0.10866267  0.40428180    -0.01800
C3          C  0.11869637  0.08923424  0.15958537    -0.01800
C4          C  0.11929332  0.33716389  0.39102044    -0.01800
C5          C  0.30787552  0.08526342  0.66344445    -0.01800
C6          C  0.11703346  0.09829305  0.88719178    -0.01800
C7          C  0.12017378  0.33759004  0.64881259    -0.01800
C8          C  0.31825108  0.33289992  0.88969625    -0.01800
C9          C  0.35331685  0.35972368  0.13043890     0.43200
N10         N  0.37839168  0.40889848  0.07559401     0.02100
C11         C  0.58768131  0.41037578  0.93843863    -0.05800
H12         H  0.61637644  0.43794554  0.11559175     0.07600
C13         C  0.52517584  0.59179344  0.11112613    -0.06200
Co14       Co  0.46781534  0.37528585  0.02417775     0.74200
N15         N  0.55194932  0.41804651  0.07607632    -0.25300
Co16       Co  0.55011905  0.47111895  0.02404650     0.74100
C17         C  0.56971486  0.57180054  0.13409844     0.43300
N18         N  0.40301706  0.55436083  0.07635297     0.01700
N19         N  0.54629884  0.52436443  0.07661157     0.01800
N20         N  0.53713728  0.34494630  0.94074908    -0.46200
H21         H  0.41790916  0.30673307  0.11531582     0.07500
N22         N  0.52203540  0.38011739  0.07703802     0.02100
N23         N  0.54684546  0.52409965  0.97173604     0.01800
C24         C  0.56904417  0.56944093  0.91254319     0.43400
N25         N  0.37343922  0.51610471  0.07593313    -0.24800
C26         C  0.40308816  0.34209658  0.93628354    -0.05700
N27         N  0.34293043  0.40139725  0.10699256    -0.45900
N28         N  0.58026430  0.52923095  0.93795158    -0.46100
C29         C  0.35898847  0.36160759  0.91249082     0.43200
N30         N  0.52339064  0.37905171  0.97208574     0.02100
N31         N  0.37433859  0.51605355  0.97202476    -0.24800
N32         N  0.41194591  0.37419949  0.07574318    -0.25300
N33         N  0.40380576  0.55434379  0.97163666     0.01700
H34         H  0.31034675  0.49609226  0.93179947     0.07600
H35         H  0.50578952  0.62407484  0.92848048     0.07600
N36         N  0.55329118  0.41700639  0.97202606    -0.25400
N37         N  0.51324783  0.55947324  0.07642881    -0.25000
N38         N  0.38026650  0.40915501  0.97066742     0.02100
C39         C  0.57415724  0.36729648  0.13364068     0.43500
C40         C  0.33912901  0.52184087  0.10950759    -0.06200
N41         N  0.51375394  0.55921749  0.97168941    -0.25000
H42         H  0.50650327  0.62602784  0.11782418     0.07600
N43         N  0.53480877  0.34772671  0.11029771    -0.46200
H44         H  0.30772089  0.49795900  0.11453048     0.07600
C45         C  0.35221833  0.56702462  0.91454652     0.43300
C46         C  0.39925788  0.34102694  0.10918531    -0.05700
Co47       Co  0.37604697  0.46241940  0.02360011     0.73800
N48         N  0.38872243  0.58807038  0.10792674    -0.45900
C49         C  0.57694511  0.36281428  0.91687601     0.43600
N50         N  0.34713183  0.40268039  0.93665959    -0.45900
Co51       Co  0.45843696  0.55870037  0.02407151     0.73900
C52         C  0.52514209  0.59050684  0.93601807    -0.06200
C53         C  0.58539724  0.41353853  0.11036616    -0.05800
N54         N  0.41366863  0.37434064  0.97137252    -0.25300
N55         N  0.58026924  0.53059077  0.10975794    -0.46100
H56         H  0.61937351  0.43377296  0.93295218     0.07600
C57         C  0.34111015  0.52065019  0.93756492    -0.06200
Cl58       Cl  0.46306920  0.46686879  0.02401922    -0.49200
C59         C  0.34909503  0.56929011  0.13142911     0.43300
H60         H  0.42253321  0.30829138  0.92950120     0.07500
N61         N  0.39081040  0.58703669  0.93869612    -0.45900
C62         C  0.30720780  0.59877894  0.15179439    -0.01800
C63         C  0.11730961  0.82708094  0.13942713    -0.01800
C64         C  0.11568821  0.60363391  0.39224640    -0.01800
C65         C  0.30735113  0.84390596  0.38408208    -0.01800
C66         C  0.35020672  0.87014850  0.40692319     0.43200
N67         N  0.40324382  0.88103457  0.46390610     0.02100
C68         C  0.39480927  0.08442293  0.61651433    -0.05800
H69         H  0.40936558  0.13351061  0.44176441     0.07600
C70         C  0.58339516  0.02901011  0.43943407    -0.06200
Co71       Co  0.37427990  0.96921455  0.52158752     0.74200
N72         N  0.40741118  0.06226124  0.47539729    -0.25300
Co73       Co  0.46383565  0.05876845  0.52755483     0.74100
C74         C  0.57240992  0.07686526  0.41956253     0.43300
N75         N  0.54698788  0.91471895  0.46633680     0.01700
N76         N  0.51934412  0.05883367  0.47474106     0.01800
N77         N  0.34064123  0.02240570  0.60954752    -0.50600
H78         H  0.30948932  0.94050508  0.42714817     0.07500
N79         N  0.37495748  0.02641449  0.47296451     0.02100
N80         N  0.51984796  0.05258833  0.57972649     0.01800
C81         C  0.57506663  0.06684007  0.63406570     0.43400
N82         N  0.51492932  0.87854198  0.46405290    -0.24800
C83         C  0.34001937  0.90458718  0.60467120    -0.05700
N84         N  0.38894660  0.84929348  0.43019849    -0.45900
N85         N  0.53401132  0.08514797  0.61262311    -0.46100
C86         C  0.35156161  0.85698441  0.62514390     0.43200
N87         N  0.37576468  0.01904458  0.57717914     0.02100
N88         N  0.51501874  0.87164057  0.56822180    -0.24800
N89         N  0.37389732  0.91926981  0.46606101    -0.25300
N90         N  0.54740928  0.90756394  0.57085885     0.01700
H91         H  0.51195302  0.80082232  0.60262550     0.07600
H92         H  0.61820621  0.99794723  0.61272453     0.07600
N93         N  0.40826563  0.05480222  0.57995286    -0.25400
N94         N  0.54962424  0.02128531  0.47310009    -0.25000
N95         N  0.40369743  0.87475134  0.56895532     0.02100
C96         C  0.34650258  0.07944743  0.42279949     0.43500
C97         C  0.52957978  0.84794318  0.42874512    -0.06200
N98         N  0.55054962  0.01540647  0.57697478    -0.25000
H99         H  0.61499928  0.00590454  0.43284693     0.07600
N100        N  0.33832857  0.03558116  0.44316265    -0.46200
H101        H  0.51273831  0.81308090  0.42028367     0.07600
C102        C  0.57427764  0.85515013  0.62225520     0.43300
C103        C  0.34061567  0.91622713  0.43126997    -0.05700
Co104      Co  0.45904733  0.87475863  0.51616336     0.73800
N105        N  0.58267563  0.91084614  0.43456566    -0.45900
C106        C  0.34999185  0.06186571  0.63695597     0.43600
N107        N  0.39090286  0.83983868  0.59986463    -0.45900
Co108      Co  0.54879119  0.96464365  0.52193967     0.73900
C109        C  0.58593398  0.02089401  0.60973782    -0.06200
C110        C  0.39247490  0.09782302  0.44512133    -0.05800
N111        N  0.37333419  0.91222036  0.57049393    -0.25300
N112        N  0.53284513  0.09406800  0.44450558    -0.46100
H113        H  0.41265800  0.11847835  0.62611296     0.07600
C114        C  0.52921179  0.83630524  0.59897412    -0.06200
Cl115      Cl  0.46150200  0.96688401  0.52188180    -0.49200
C116        C  0.57459242  0.87028151  0.40839448     0.43300
H117        H  0.30855395  0.92777528  0.61161123     0.07500
N118        N  0.58317929  0.89880541  0.60169045    -0.45900
C119        C  0.61744374  0.33153251  0.89618735    -0.01800
C120        C  0.80434654  0.33449245  0.64794033    -0.01800
C121        C  0.61421830  0.09685237  0.65925824    -0.01800
C122        C  0.80137654  0.10191520  0.89705396    -0.01800
C123        C  0.31299967  0.59364721  0.88713728    -0.01800
C124        C  0.31065693  0.82623679  0.64628068    -0.01800
C125        C  0.11984685  0.59287925  0.64929591    -0.01800
C126        C  0.11060984  0.83707769  0.88418105    -0.01800
C127        C  0.61854233  0.84531974  0.38651909    -0.01800
C128        C  0.80840951  0.59763868  0.39048162    -0.01800
C129        C  0.61206854  0.59936278  0.15556885    -0.01800
C130        C  0.81039402  0.82335410  0.14280965    -0.01800
C131        C  0.60915607  0.59377551  0.88389421    -0.01800
C132        C  0.80424100  0.59510552  0.64878837    -0.01800
C133        C  0.61669213  0.82695409  0.64348290    -0.01800
C134        C  0.80555509  0.84193586  0.88126214    -0.01800
C135        C  0.07678243  0.06938658  0.12892089     0.43200
N136        N  0.01984842  0.01763866  0.10924145     0.02100
C137        C  0.02460545  0.88531803  0.89246922    -0.05800
H138        H  0.01031384  0.06279914  0.86131585     0.07600
C139        C  0.83560392  0.05514777  0.96954639    -0.06200
Co140      Co  0.04768697  0.96956919  0.01552035     0.74200
N141        N  0.01218884  0.02531562  0.92964885    -0.25300
Co142      Co  0.95636628  0.97210527  0.92871780     0.74100
C143        C  0.84441092  0.07993679  0.92405249     0.43300
N144        N  0.87476397  0.01648384  0.07921522     0.01700
N145        N  0.90015825  0.02469756  0.93568920     0.01800
N146        N  0.07989406  0.88516116  0.95263484    -0.46200
H147        H  0.11673624  0.05699198  0.05701598     0.07500
N148        N  0.04497516  0.02514997  0.96463092     0.02100
N149        N  0.90138847  0.91818937  0.92947157     0.01800
C150        C  0.84759544  0.86279295  0.91091085     0.43400
N151        N  0.90749472  0.01543744  0.11423029    -0.24800
C152        C  0.08570509  0.88070053  0.06960244    -0.05700
N153        N  0.03594795  0.04573823  0.14523190    -0.45900
N154        N  0.88687312  0.88849452  0.89405187    -0.46100
C155        C  0.07621403  0.85486115  0.11441228     0.43200
N156        N  0.04545010  0.91820273  0.96019061     0.02100
N157        N  0.90980683  0.90896921  0.10836546    -0.24800
N158        N  0.04917645  0.01978748  0.07145453    -0.25300
N159        N  0.87697421  0.90995668  0.07344712     0.01700
H160        H  0.91503799  0.86499601  0.17277658     0.07600
H161        H  0.80675545  0.87502662  0.98236823     0.07600
N162        N  0.01224322  0.91930303  0.92562601    -0.25400
N163        N  0.87079258  0.02172743  0.97332657    -0.25000
N164        N  0.02138055  0.91112463  0.10375250     0.02100
C165        C  0.07333523  0.07894147  0.91494099     0.43500
C166        C  0.89255940  0.04729747  0.14863991    -0.06200
N167        N  0.87218026  0.91573490  0.96719972    -0.25000
H168        H  0.80418992  0.05806115  0.99331910     0.07600
N169        N  0.08170027  0.05579735  0.95689987    -0.46200
H170        H  0.90992982  0.05240900  0.18329768     0.07600
C171        C  0.85202062  0.85064898  0.11839571     0.43300
C172        C  0.08501192  0.05179274  0.08000136    -0.05700
Co173      Co  0.96472497  0.96330568  0.11042203     0.73800
N174        N  0.83840796  0.04717214  0.08760742    -0.45900
C175        C  0.06924922  0.86143362  0.91135161     0.43600
N176        N  0.03645053  0.87712434  0.13477135    -0.45900
Co177      Co  0.87357144  0.96591456  0.02338545     0.73900
C178        C  0.83802244  0.88182046  0.95918510    -0.06200
C179        C  0.02716932  0.05774087  0.89617937    -0.05800
N180        N  0.05071260  0.91428786  0.06611656    -0.25300
N181        N  0.88453366  0.05784869  0.90417687    -0.46100
H182        H  0.00581296  0.87917018  0.85868712     0.07600
C183        C  0.89692513  0.87292563  0.13906679    -0.06200
Cl184      Cl  0.96060424  0.96788342  0.01955407    -0.49200
C185        C  0.84670397  0.06952717  0.13007522     0.43300
H186        H  0.11679364  0.87748897  0.04546667     0.07500
N187        N  0.84218145  0.87675864  0.07854567    -0.45900
C188        C  0.61357474  0.10740064  0.39879473    -0.01800
C189        C  0.80315458  0.09144584  0.15669065    -0.01800
C190        C  0.61241631  0.33975548  0.16155233    -0.01800
C191        C  0.80677022  0.33835943  0.39188241    -0.01800
C192        C  0.07546126  0.35961702  0.62417237     0.43200
N193        N  0.01533678  0.40746758  0.60695983     0.02100
C194        C  0.87617894  0.40763306  0.39774973    -0.05800
H195        H  0.06040476  0.43161529  0.36822844     0.07600
C196        C  0.05101022  0.59281158  0.46439593    -0.06200
Co197      Co  0.96318713  0.37664810  0.51668766     0.74200
N198        N  0.01729152  0.41690038  0.43158750    -0.25300
Co199      Co  0.96385436  0.47152263  0.43294602     0.74100
C200        C  0.07325898  0.57906963  0.41828765     0.43300
N201        N  0.01460466  0.55252946  0.58025018     0.01700
N202        N  0.01671436  0.52708283  0.43660149     0.01800
N203        N  0.87609989  0.34698331  0.45281544    -0.46200
H204        H  0.06230819  0.31442914  0.55472373     0.07500
N205        N  0.01687529  0.38042894  0.46262085     0.02100
N206        N  0.90999633  0.52585766  0.43560826     0.01800
C207        C  0.85117256  0.57489065  0.41729562     0.43400
N208        N  0.01413424  0.51632811  0.61145839    -0.24800
C209        C  0.87500690  0.33911330  0.58008265    -0.05700
N210        N  0.04990236  0.39901833  0.63966382    -0.45900
N211        N  0.87647220  0.53515469  0.40221773    -0.46100
C212        C  0.85213121  0.35368548  0.62592086     0.43200
N213        N  0.91032120  0.38018436  0.46243508     0.02100
N214        N  0.90752815  0.51580808  0.61033290    -0.24800
N215        N  0.01635948  0.37590958  0.57097765    -0.25300
N216        N  0.90811557  0.55224537  0.57931842     0.01700
H217        H  0.86300266  0.50012529  0.67230020     0.07600
H218        H  0.86374247  0.62049176  0.48632946     0.07600
N219        N  0.91107187  0.41604366  0.43073350    -0.25400
N220        N  0.01612883  0.55894521  0.47237867    -0.25000
N221        N  0.90831980  0.40593332  0.60604488     0.02100
C222        C  0.07436938  0.36178802  0.41252151     0.43500
C223        C  0.05022776  0.52343489  0.64341920    -0.06200
N224        N  0.90892176  0.55756114  0.47149692    -0.25000
H225        H  0.05795864  0.62457101  0.48670697     0.07600
N226        N  0.05024399  0.34658264  0.45237857    -0.46200
H227        H  0.05798163  0.49956227  0.67331796     0.07600
C228        C  0.84934378  0.57019333  0.62800114     0.43300
C229        C  0.05334967  0.34463792  0.57824203    -0.05700
Co230      Co  0.96117441  0.46139030  0.60940895     0.73800
N231        N  0.04945185  0.58513865  0.58955137    -0.45900
C232        C  0.85324076  0.36139062  0.41205814     0.43600
N233        N  0.87448613  0.39600543  0.63901241    -0.45900
Co234      Co  0.96196693  0.55613374  0.52596537     0.73900
C235        C  0.87251649  0.58959626  0.46355462    -0.06200
C236        C  0.05265745  0.40873249  0.39897499    -0.05800
N237        N  0.90937285  0.37331817  0.57100031    -0.25300
N238        N  0.04995016  0.53795952  0.40332039    -0.46100
H239        H  0.86900619  0.43041958  0.36685223     0.07600
C240        C  0.87125124  0.52344840  0.64204453    -0.06200
Cl241      Cl  0.96247839  0.46637437  0.52118795    -0.49200
C242        C  0.07341142  0.56959432  0.62929722     0.43300
H243        H  0.86816087  0.30706753  0.55817603     0.07500
N244        N  0.87410062  0.58562342  0.58866926    -0.45900
C245        C  0.76023257  0.40486356  0.29470401     0.30500
C246        C  0.75891035  0.40382165  0.24427536    -0.35900
C247        C  0.71215514  0.40486085  0.22308250     0.16500
C248        C  0.66995212  0.41248865  0.24954280     0.22300
C249        C  0.67148859  0.41482924  0.30013619    -0.34000
C250        C  0.71776908  0.40811553  0.32162173     0.16400
O251        O  0.79729483  0.38815820  0.31978481    -0.26000
C252        C  0.77857182  0.37674822  0.36270985     0.06200
C253        C  0.72913013  0.39041693  0.36650304    -0.30900
O254        O  0.63021331  0.40022501  0.22539919    -0.22700
C255        C  0.64656003  0.37900649  0.18505200    -0.02700
C256        C  0.69766014  0.38406923  0.18053164    -0.17100
H257        H  0.79122348  0.39374652  0.22370897     0.20900
H258        H  0.63796717  0.41322725  0.32116147     0.19200
H259        H  0.70318250  0.38177886  0.39467197     0.19200
H260        H  0.72229870  0.36806920  0.15452321     0.15000
C261        C  0.70749647  0.15820547  0.10153296     0.30500
C262        C  0.65930437  0.17646823  0.10514596    -0.35900
C263        C  0.65440139  0.22759942  0.10394420     0.16500
C264        C  0.69420624  0.25860618  0.10008709     0.22300
C265        C  0.74159257  0.24022729  0.09136728    -0.34000
C266        C  0.74654799  0.18907152  0.09186749     0.16400
O267        O  0.72211409  0.11555881  0.11866712    -0.26000
C268        C  0.77116137  0.11866477  0.11955278     0.06200
C269        C  0.78805003  0.16256149  0.09963473    -0.30900
O270        O  0.68415652  0.30336669  0.11521140    -0.22700
C271        C  0.63710028  0.30163431  0.12859276    -0.02700
C272        C  0.61626872  0.25564828  0.11924466    -0.17100
H273        H  0.62887827  0.15313254  0.11556900     0.20900
H274        H  0.77347836  0.26408562  0.09106146     0.19200
H275        H  0.82506342  0.17721732  0.10235781     0.19200
H276        H  0.58022656  0.24232153  0.12913888     0.15000
C277        C  0.79486485  0.24659236  0.30471154     0.30500
C278        C  0.76610437  0.21439045  0.27872705    -0.35900
C279        C  0.79113057  0.18447839  0.24716846     0.16500
C280        C  0.84142289  0.18509315  0.24029989     0.22300
C281        C  0.87104211  0.21825519  0.26704834    -0.34000
C282        C  0.84545390  0.24894260  0.29986222     0.16400
O283        O  0.77728303  0.27693076  0.33624807    -0.26000
C284        C  0.81642751  0.29990539  0.35351161     0.06200
C285        C  0.86057765  0.28429681  0.33216963    -0.30900
O286        O  0.85542647  0.15217021  0.20749740    -0.22700
C287        C  0.81280671  0.13118657  0.19437849    -0.02700
C288        C  0.77236409  0.15058001  0.21831158    -0.17100
H289        H  0.72650610  0.21250006  0.28307246     0.20900
H290        H  0.91066350  0.21979656  0.26292834     0.19200
H291        H  0.89768517  0.29691922  0.33933186     0.19200
H292        H  0.73381317  0.14095174  0.21446207     0.15000
C293        C  0.60521885  0.27601935  0.26971013     0.30500
C294        C  0.63046957  0.25786619  0.30835298    -0.35900
C295        C  0.61022041  0.21715311  0.32905492     0.16500
C296        C  0.56638910  0.19583988  0.31548447     0.22300
C297        C  0.53973625  0.21527088  0.27595178    -0.34000
C298        C  0.56151797  0.25646125  0.25322013     0.16400
O299        O  0.62438317  0.30779954  0.24129929    -0.26000
C300        C  0.59307648  0.31194988  0.20522523     0.06200
C301        C  0.55216468  0.28065011  0.21062222    -0.30900
O302        O  0.55820130  0.15457420  0.33964674    -0.22700
C303        C  0.59784039  0.15101031  0.36830804    -0.02700
C304        C  0.63181839  0.18791129  0.36009907    -0.17100
H305        H  0.66617454  0.27216521  0.31890784     0.20900
H306        H  0.50690813  0.19777090  0.26201694     0.19200
H307        H  0.52274138  0.27357383  0.18526370     0.19200
H308        H  0.66921404  0.19156924  0.37308357     0.15000
C309        C  0.72090669  0.26830850  0.46025869     0.30500
C310        C  0.67317584  0.25012507  0.46907815    -0.35900
C311        C  0.66814537  0.19873791  0.47182659     0.16500
C312        C  0.70710914  0.16778381  0.46233261     0.22300
C313        C  0.75540427  0.18597863  0.45985870    -0.34000
C314        C  0.76067148  0.23711379  0.46051174     0.16400
O315        O  0.73193339  0.31163367  0.44142681    -0.26000
C316        C  0.77995463  0.30874364  0.43130396     0.06200
C317        C  0.79985386  0.26398875  0.44613677    -0.30900
O318        O  0.69256690  0.12574742  0.44318763    -0.22700
C319        C  0.64360083  0.12900419  0.44132973    -0.02700
C320        C  0.62664799  0.17162500  0.46431128    -0.17100
H321        H  0.64125759  0.27368463  0.46696423     0.20900
H322        H  0.78597330  0.16242285  0.45052048     0.19200
H323        H  0.83572876  0.24954010  0.43672131     0.19200
H324        H  0.58986943  0.18661728  0.46124476     0.15000
C325        C  0.71423039  0.03218687  0.22624821     0.30500
C326        C  0.66609497  0.03625357  0.24422997    -0.35900
C327        C  0.66155350  0.04257377  0.29414268     0.16500
C328        C  0.70161454  0.04485336  0.32455104     0.22300
C329        C  0.74929832  0.03539574  0.30713431    -0.34000
C330        C  0.75396111  0.02861071  0.25705683     0.16400
O331        O  0.72748906  0.04558159  0.18247397    -0.26000
C332        C  0.77628248  0.05081745  0.18477513     0.06200
C333        C  0.79476839  0.03590990  0.22946652    -0.30900
O334        O  0.69068024  0.06497461  0.36671446    -0.22700
C335        C  0.64269644  0.07503742  0.36353176    -0.02700
C336        C  0.62265007  0.05978292  0.31966849    -0.17100
H337        H  0.63508219  0.04203715  0.22044461     0.20900
H338        H  0.78132786  0.04004501  0.32991475     0.19200
H339        H  0.83131679  0.04355100  0.24327264     0.19200
H340        H  0.58596853  0.06688828  0.30613553     0.15000
C341        C  0.70074592  0.89383593  0.71922850     0.30500
C342        C  0.74775904  0.90564762  0.73722526    -0.35900
C343        C  0.75211871  0.90992656  0.78763334     0.16500
C344        C  0.71292166  0.90121428  0.81807363     0.22300
C345        C  0.66507986  0.89509203  0.79982627    -0.34000
C346        C  0.66071039  0.89204127  0.74959908     0.16400
O347        O  0.69106804  0.87466300  0.67629014    -0.26000
C348        C  0.64382421  0.86133673  0.67880622     0.06200
C349        C  0.62286688  0.87399649  0.72309871    -0.30900
O350        O  0.72732155  0.88569282  0.86079808    -0.22700
C351        C  0.77635990  0.88427773  0.85820450    -0.02700
C352        C  0.79345987  0.90437801  0.81489110    -0.17100
H353        H  0.77996347  0.90453503  0.71429544     0.20900
H354        H  0.63461531  0.88558033  0.82313791     0.19200
H355        H  0.58675352  0.86403547  0.73639739     0.19200
H356        H  0.83037981  0.90053924  0.80058509     0.15000
C357        C  0.75653982  0.68823687  0.57631718     0.30500
C358        C  0.75583239  0.73970755  0.57437454    -0.35900
C359        C  0.70928323  0.76211066  0.57462899     0.16500
C360        C  0.66631643  0.73536505  0.57149048     0.22300
C361        C  0.66713941  0.68379519  0.57262959    -0.34000
C362        C  0.71350119  0.66156919  0.57765096     0.16400
O363        O  0.79434793  0.66297429  0.59205303    -0.26000
C364        C  0.77567555  0.62061919  0.60786326     0.06200
C365        C  0.72527961  0.61709406  0.59762848    -0.30900
O366        O  0.62762333  0.76125264  0.58422725    -0.22700
C367        C  0.64552749  0.80360920  0.60106488    -0.02700
C368        C  0.69634591  0.80712529  0.59278347    -0.17100
H369        H  0.78902421  0.76072802  0.58095330     0.20900
H370        H  0.63351799  0.66311164  0.57784722     0.19200
H371        H  0.69921132  0.59011312  0.61013857     0.19200
H372        H  0.72190949  0.83399114  0.60658407     0.15000
C373        C  0.84549942  0.75772909  0.78898222     0.30500
C374        C  0.87436969  0.72375654  0.76244801    -0.35900
C375        C  0.84805962  0.69345669  0.72954980     0.16500
C376        C  0.79767521  0.69750659  0.72402090     0.22300
C377        C  0.77000594  0.73131725  0.74873546    -0.34000
C378        C  0.79547978  0.76003053  0.78094254     0.16400
O379        O  0.85924512  0.78732156  0.82499593    -0.26000
C380        C  0.81657232  0.80749061  0.83906948     0.06200
C381        C  0.77655360  0.79084606  0.81255842    -0.30900
O382        O  0.77855880  0.66466050  0.69594214    -0.22700
C383        C  0.81642923  0.63833148  0.68118839    -0.02700
C384        C  0.86144606  0.65453797  0.70061490    -0.17100
H385        H  0.91354887  0.71980283  0.76837941     0.20900
H386        H  0.73043932  0.73359461  0.74487450     0.19200
H387        H  0.73783405  0.79894220  0.81753745     0.19200
H388        H  0.89767168  0.63877767  0.69594067     0.15000
C389        C  0.61051376  0.66244324  0.77847011     0.30500
C390        C  0.63705853  0.68054984  0.74042246    -0.35900
C391        C  0.61606941  0.71945886  0.71705386     0.16500
C392        C  0.57086044  0.73920152  0.72816736     0.22300
C393        C  0.54319708  0.71996710  0.76706425    -0.34000
C394        C  0.56520522  0.68044427  0.79196260     0.16400
O395        O  0.62814556  0.63059414  0.80781799    -0.26000
C396        C  0.59386461  0.62481659  0.84106024     0.06200
C397        C  0.55320326  0.65566778  0.83354538    -0.30900
O398        O  0.56167441  0.77889438  0.70207839    -0.22700
C399        C  0.60202785  0.78332856  0.67457968    -0.02700
C400        C  0.63715986  0.74805738  0.68474558    -0.17100
H401        H  0.67337227  0.66687192  0.73151262     0.20900
H402        H  0.50900335  0.73629363  0.77871414     0.19200
H403        H  0.52150446  0.66152690  0.85627190     0.19200
H404        H  0.67471242  0.74524667  0.67196235     0.15000
C405        C  0.70455753  0.53192138  0.82297154     0.30500
C406        C  0.75280098  0.53511023  0.80528926    -0.35900
C407        C  0.75811675  0.53365628  0.75510365     0.16500
C408        C  0.71858293  0.53073704  0.72413419     0.22300
C409        C  0.67102429  0.52123687  0.74209463    -0.34000
C410        C  0.66580836  0.52087110  0.79263070     0.16400
O411        O  0.68970993  0.55174299  0.86392717    -0.26000
C412        C  0.64074857  0.55266502  0.86061161     0.06200
C413        C  0.62413880  0.52880885  0.81878481    -0.30900
O414        O  0.72931211  0.54745689  0.68048584    -0.22700
C415        C  0.77680245  0.56004058  0.68318492    -0.02700
C416        C  0.79664219  0.54938414  0.72846520    -0.17100
H417        H  0.78303887  0.54611984  0.82833882     0.20900
H418        H  0.63919265  0.52127826  0.71863734     0.19200
H419        H  0.58723168  0.53074571  0.80407759     0.19200
H420        H  0.83229589  0.56052630  0.74221623     0.15000
C421        C  0.69927796  0.66897149  0.94017107     0.30500
C422        C  0.74784133  0.68637577  0.94268840    -0.35900
C423        C  0.75372473  0.73738926  0.94226461     0.16500
C424        C  0.71439447  0.76918463  0.93921211     0.22300
C425        C  0.66581449  0.75181260  0.94202857    -0.34000
C426        C  0.65992582  0.70076237  0.94249933     0.16400
O427        O  0.68635230  0.62514332  0.92436220    -0.26000
C428        C  0.63800181  0.62847757  0.91684589     0.06200
C429        C  0.61946482  0.67413269  0.93042688    -0.30900
O430        O  0.72737887  0.81255335  0.92241317    -0.22700
C431        C  0.77570838  0.80876478  0.91509377    -0.02700
C432        C  0.79421006  0.76353678  0.92978888    -0.17100
H433        H  0.77890917  0.66209052  0.93782977     0.20900
H434        H  0.63475179  0.77594522  0.93661285     0.19200
H435        H  0.58300370  0.68840939  0.92354472     0.19200
H436        H  0.83060637  0.74905847  0.92265585     0.15000
C437        C  0.69689505  0.66496186  0.08162100     0.30500
C438        C  0.74491899  0.68160226  0.07186428    -0.35900
C439        C  0.75164867  0.73274423  0.06955152     0.16500
C440        C  0.71368997  0.76489702  0.07925217     0.22300
C441        C  0.66478733  0.74821242  0.08133747    -0.34000
C442        C  0.65794810  0.69721596  0.08137566     0.16400
O443        O  0.68557891  0.62292036  0.10284073    -0.26000
C444        C  0.63821350  0.62754327  0.11472404     0.06200
C445        C  0.61871419  0.67197222  0.09844793    -0.30900
O446        O  0.72955326  0.80585387  0.09977196    -0.22700
C447        C  0.77833434  0.80070906  0.10202153    -0.02700
C448        C  0.79399166  0.75792311  0.07867842    -0.17100
H449        H  0.77611889  0.65714088  0.07434253     0.20900
H450        H  0.63511352  0.77265483  0.09123690     0.19200
H451        H  0.58359774  0.68773980  0.10849527     0.19200
H452        H  0.83022384  0.74168582  0.08177656     0.15000
C453        C  0.66135085  0.53751350  0.25592382     0.30500
C454        C  0.66301402  0.53711128  0.30650534    -0.35900
C455        C  0.70992985  0.53423164  0.32766903     0.16500
C456        C  0.75197470  0.52772087  0.30084016     0.22300
C457        C  0.75015683  0.52735623  0.25009332    -0.34000
C458        C  0.70366999  0.53451339  0.22886306     0.16400
O459        O  0.62359406  0.55301987  0.23064595    -0.26000
C460        C  0.64168039  0.56341121  0.18709159     0.06200
C461        C  0.69155371  0.55088808  0.18363308    -0.30900
O462        O  0.79205032  0.53761210  0.32582934    -0.22700
C463        C  0.77629432  0.55600776  0.36787066    -0.02700
C464        C  0.72500367  0.55079133  0.37190245    -0.17100
H465        H  0.63073884  0.54602792  0.32762508     0.20900
H466        H  0.78357404  0.52890277  0.22891322     0.19200
H467        H  0.71707520  0.55860408  0.15485487     0.19200
H468        H  0.70059167  0.56466230  0.39925643     0.15000
C469        C  0.85414673  0.73793771  0.23133867     0.30500
C470        C  0.87998754  0.71989905  0.27206698    -0.35900
C471        C  0.85682483  0.68071866  0.29695254     0.16500
C472        C  0.81215942  0.66209958  0.28191436     0.22300
C473        C  0.78785048  0.67869308  0.24189931    -0.34000
C474        C  0.80998834  0.71696724  0.21837313     0.16400
O475        O  0.86393211  0.77736341  0.20477798    -0.26000
C476        C  0.82524662  0.78005660  0.17470497     0.06200
C477        C  0.79040838  0.74407663  0.18414763    -0.30900
O478        O  0.79276451  0.63120238  0.31142366    -0.22700
C479        C  0.82532705  0.62638813  0.34636992    -0.02700
C480        C  0.86669172  0.65684050  0.33960238    -0.17100
H481        H  0.91382429  0.73654621  0.28471421     0.20900
H482        H  0.75210048  0.66445131  0.23146807     0.19200
H483        H  0.75332482  0.74019136  0.17034235     0.19200
H484        H  0.89727595  0.66293925  0.36388136     0.15000
C485        C  0.62230286  0.69173196  0.23983625     0.30500
C486        C  0.65191225  0.72099220  0.26759031    -0.35900
C487        C  0.62764877  0.75075075  0.29923367     0.16500
C488        C  0.57715756  0.75379551  0.30357126     0.22300
C489        C  0.54648648  0.72309467  0.27527135    -0.34000
C490        C  0.57153326  0.69134752  0.24319784     0.16400
O491        O  0.63965954  0.66100876  0.20914137    -0.26000
C492        C  0.60047854  0.63875741  0.19158986     0.06200
C493        C  0.55607631  0.65582272  0.21124933    -0.30900
O494        O  0.56424004  0.78759836  0.33563265    -0.22700
C495        C  0.60781095  0.80463242  0.35097235    -0.02700
C496        C  0.64773021  0.78195830  0.32965390    -0.17100
H497        H  0.69167962  0.72046842  0.26482872     0.20900
H498        H  0.50675916  0.72382374  0.27804050     0.19200
H499        H  0.51884816  0.64370152  0.20397156     0.19200
H500        H  0.68668262  0.78888938  0.33503317     0.15000
C501        C  0.71105909  0.89828067  0.31477658     0.30500
C502        C  0.75930436  0.89392724  0.29700479    -0.35900
C503        C  0.76424149  0.88944213  0.24687702     0.16500
C504        C  0.72436122  0.88840910  0.21620205     0.22300
C505        C  0.67660157  0.89762397  0.23360152    -0.34000
C506        C  0.67166606  0.90310826  0.28379653     0.16400
O507        O  0.69714820  0.88573267  0.35865944    -0.26000
C508        C  0.64812706  0.88270423  0.35634944     0.06200
C509        C  0.63046624  0.89730456  0.31120997    -0.30900
O510        O  0.73533917  0.86918980  0.17367169    -0.22700
C511        C  0.78322019  0.85859736  0.17670586    -0.02700
C512        C  0.80321777  0.87282635  0.22097639    -0.17100
H513        H  0.79009984  0.88732011  0.32084331     0.20900
H514        H  0.64469039  0.89415417  0.21047206     0.19200
H515        H  0.59356379  0.89140903  0.29748910     0.19200
H516        H  0.83949577  0.86453040  0.23483572     0.15000
C517        C  0.72345602  0.67936039  0.44761892     0.30500
C518        C  0.67579608  0.69787020  0.45456830    -0.35900
C519        C  0.67108916  0.74908607  0.45471514     0.16500
C520        C  0.71057979  0.77988035  0.44679966     0.22300
C521        C  0.75878256  0.76144917  0.44458993    -0.34000
C522        C  0.76345055  0.71029204  0.44545746     0.16400
O523        O  0.73412893  0.63446777  0.43319740    -0.26000
C524        C  0.78181964  0.63599302  0.42202996     0.06200
C525        C  0.80215199  0.68216786  0.43175741    -0.30900
O526        O  0.69677584  0.82271348  0.42953191    -0.22700
C527        C  0.64781111  0.81975383  0.42664335    -0.02700
C528        C  0.63000166  0.77594417  0.44612032    -0.17100
H529        H  0.64382318  0.67414258  0.45354432     0.20900
H530        H  0.78967676  0.78478421  0.43555852     0.19200
H531        H  0.83864576  0.69528119  0.42303034     0.19200
H532        H  0.59320274  0.76117561  0.44177269     0.15000
C533        C  0.12025264  0.75324952  0.79095644     0.30500
C534        C  0.15012445  0.72774974  0.76014125    -0.35900
C535        C  0.12725945  0.69233990  0.73305351     0.16500
C536        C  0.07736781  0.68291319  0.73402500     0.22300
C537        C  0.04621342  0.71009365  0.76532183    -0.34000
C538        C  0.07010701  0.74594977  0.79420131     0.16400
O539        O  0.13719974  0.78512744  0.82083008    -0.26000
C540        C  0.09828518  0.80080547  0.84463809     0.06200
C541        C  0.05439836  0.77795758  0.82976758    -0.30900
O542        O  0.06545949  0.64670133  0.70404242    -0.22700
C543        C  0.10899101  0.63386768  0.68501442    -0.02700
C544        C  0.14803018  0.66109699  0.70261649    -0.17100
H545        H  0.18906578  0.73539152  0.75810736     0.20900
H546        H  0.00700350  0.70328686  0.76756661     0.19200
H547        H  0.01761365  0.78265539  0.84399709     0.19200
H548        H  0.18662421  0.65802083  0.69343353     0.15000
C549        C  0.22166679  0.76002486  0.58099911     0.30500
C550        C  0.17354619  0.74120916  0.57870996    -0.35900
C551        C  0.16895161  0.68989244  0.57827454     0.16500
C552        C  0.20892772  0.65927681  0.58320068     0.22300
C553        C  0.25704717  0.67800175  0.57918747    -0.34000
C554        C  0.26160404  0.72932985  0.57623027     0.16400
O555        O  0.23407757  0.80329396  0.59914487    -0.26000
C556        C  0.28292396  0.80103926  0.60428733     0.06200
C557        C  0.30195414  0.75727627  0.58538581    -0.30900
O558        O  0.19676830  0.61648884  0.60248108    -0.22700
C559        C  0.14800744  0.61903673  0.60840511    -0.02700
C560        C  0.12890236  0.66279442  0.58996065    -0.17100
H561        H  0.14186089  0.76452552  0.58428510     0.20900
H562        H  0.28889491  0.65496207  0.58482777     0.19200
H563        H  0.33872133  0.74316689  0.59131507     0.19200
H564        H  0.09241881  0.67735131  0.59655467     0.15000
C565        C  0.20423701  0.89334787  0.81736951     0.30500
C566        C  0.25280010  0.89056988  0.80034440    -0.35900
C567        C  0.25865548  0.88805243  0.75019781     0.16500
C568        C  0.21937839  0.88628748  0.71878582     0.22300
C569        C  0.17117599  0.89441063  0.73562712    -0.34000
C570        C  0.16545491  0.89915331  0.78588537     0.16400
O571        O  0.18961484  0.87910138  0.86053109    -0.26000
C572        C  0.14063861  0.87655833  0.85734174     0.06200
C573        C  0.12385290  0.89364992  0.81262887    -0.30900
O574        O  0.23176359  0.86814124  0.67603438    -0.22700
C575        C  0.28003426  0.85953006  0.67982342    -0.02700
C576        C  0.29866172  0.87403132  0.72460023    -0.17100
H577        H  0.28336581  0.88403177  0.82447827     0.20900
H578        H  0.13966382  0.89121027  0.71195423     0.19200
H579        H  0.08711802  0.88886198  0.79808980     0.19200
H580        H  0.33506264  0.86681904  0.73882815     0.15000
C581        C  0.22243907  0.53058654  0.81890928     0.30500
C582        C  0.17426795  0.52922994  0.80101798    -0.35900
C583        C  0.16934518  0.52833574  0.75079442     0.16500
C584        C  0.20908576  0.53036042  0.71995757     0.22300
C585        C  0.25724917  0.52550330  0.73796973    -0.34000
C586        C  0.26217357  0.52467860  0.78845983     0.16400
O587        O  0.23510436  0.54939416  0.86105484    -0.26000
C588        C  0.28377980  0.55459489  0.85831143     0.06200
C589        C  0.30267496  0.53547412  0.81518002    -0.30900
O590        O  0.19701201  0.54782437  0.67696447    -0.22700
C591        C  0.14857098  0.55572308  0.67997664    -0.02700
C592        C  0.12964963  0.54128589  0.72458792    -0.17100
H593        H  0.14297960  0.53626586  0.82415482     0.20900
H594        H  0.28901394  0.52952388  0.71477346     0.19200
H595        H  0.33954998  0.54094108  0.80126584     0.19200
H596        H  0.09356533  0.54979339  0.73897123     0.15000
C597        C  0.20232587  0.76522883  0.94209575     0.30500
C598        C  0.25111964  0.74848675  0.94569544    -0.35900
C599        C  0.25770267  0.69741398  0.94627987     0.16500
C600        C  0.21896684  0.66501271  0.94172456     0.22300
C601        C  0.17004503  0.68172495  0.94320213    -0.34000
C602        C  0.16343741  0.73278732  0.94433491     0.16400
O603        O  0.18877484  0.80895285  0.92641305    -0.26000
C604        C  0.14024171  0.80504070  0.91955709     0.06200
C605        C  0.12246286  0.75905819  0.93366796    -0.30900
O606        O  0.23328628  0.62143392  0.92607281    -0.22700
C607        C  0.28210145  0.62535894  0.92158872    -0.02700
C608        C  0.29915988  0.67126477  0.93688943    -0.17100
H609        H  0.28205761  0.77321105  0.94181135     0.20900
H610        H  0.13934261  0.65704706  0.93744475     0.19200
H611        H  0.08615108  0.74414789  0.92666255     0.19200
H612        H  0.33572161  0.68624836  0.93160171     0.15000
C613        C  0.35633648  0.73804836  0.73110747     0.30500
C614        C  0.38549752  0.71511172  0.76723324    -0.35900
C615        C  0.36051824  0.68000986  0.79619433     0.16500
C616        C  0.31135207  0.67009776  0.78870109     0.22300
C617        C  0.28436536  0.68981684  0.75240511    -0.34000
C618        C  0.30790519  0.72420114  0.72537964     0.16400
O619        O  0.36757174  0.77559137  0.70245033    -0.26000
C620        C  0.32487038  0.78429393  0.67958209     0.06200
C621        C  0.28724060  0.75340718  0.69379920    -0.30900
O622        O  0.29189573  0.64167463  0.81996414    -0.22700
C623        C  0.32845665  0.62904294  0.84825681    -0.02700
C624        C  0.37326268  0.65176138  0.83570159    -0.17100
H625        H  0.42338134  0.72531343  0.77366595     0.20900
H626        H  0.24632965  0.67993362  0.74721814     0.19200
H627        H  0.24865919  0.75414720  0.68375213     0.19200
H628        H  0.40863947  0.64910112  0.85343025     0.15000
C629        C  0.67522240  0.02492288  0.74719400     0.30500
C630        C  0.67593734  0.01786071  0.79749605    -0.35900
C631        C  0.72129324  0.02631157  0.82092856     0.16500
C632        C  0.76389977  0.03564875  0.79579682     0.22300
C633        C  0.76343672  0.04146917  0.74589678    -0.34000
C634        C  0.71741683  0.03872579  0.72344116     0.16400
O635        O  0.63518456  0.03556198  0.72231804    -0.26000
C636        C  0.65099758  0.06110160  0.68423666     0.06200
C637        C  0.70259269  0.06315147  0.68351022    -0.30900
O638        O  0.79873534  0.05379693  0.82311755    -0.22700
C639        C  0.77804689  0.06095320  0.86606069    -0.02700
C640        C  0.73039239  0.04105285  0.86739866    -0.17100
H641        H  0.64197734  0.01461089  0.81764662     0.20900
H642        H  0.79513933  0.05648050  0.72741457     0.19200
H643        H  0.72678555  0.08748886  0.66444473     0.19200
H644        H  0.70359608  0.04151132  0.89573644     0.15000
C645        C  0.74623446  0.24300613  0.58036077     0.30500
C646        C  0.74153300  0.19186710  0.57615570    -0.35900
C647        C  0.69422793  0.17254267  0.58425309     0.16500
C648        C  0.65489076  0.20189982  0.59585799     0.22300
C649        C  0.65835626  0.25294404  0.59424392    -0.34000
C650        C  0.70551820  0.27229350  0.58664650     0.16400
O651        O  0.78722548  0.26580445  0.59251488    -0.26000
C652        C  0.77295464  0.30989266  0.60822193     0.06200
C653        C  0.72247378  0.31688661  0.60082824    -0.30900
O654        O  0.62025227  0.17788654  0.61885440    -0.22700
C655        C  0.63678278  0.13219499  0.62217054    -0.02700
C656        C  0.68078394  0.12614376  0.59672460    -0.17100
H657        H  0.77361515  0.16846561  0.57459879     0.20900
H658        H  0.62834412  0.27575949  0.60663386     0.19200
H659        H  0.69890357  0.34632077  0.61216726     0.19200
H660        H  0.70265331  0.09349909  0.59222029     0.15000
C661        C  0.79133661  0.18840047  0.80478284     0.30500
C662        C  0.76273154  0.21455139  0.77266122    -0.35900
C663        C  0.78829080  0.24221964  0.73931355     0.16500
C664        C  0.83893272  0.24529522  0.73711642     0.22300
C665        C  0.86822917  0.21809535  0.76982880    -0.34000
C666        C  0.84215217  0.18931889  0.80385430     0.16400
O667        O  0.77334717  0.15985806  0.83771339    -0.26000
C668        C  0.81234876  0.14083991  0.85938785     0.06200
C669        C  0.85692258  0.15795958  0.84005489    -0.30900
O670        O  0.85376517  0.27667597  0.70338041    -0.22700
C671        C  0.81146479  0.29292803  0.68431806    -0.02700
C672        C  0.77016610  0.27189974  0.70561068    -0.17100
H673        H  0.72282948  0.21341451  0.77371648     0.20900
H674        H  0.90807405  0.21951752  0.76907070     0.19200
H675        H  0.89406812  0.14785121  0.84996773     0.19200
H676        H  0.73168796  0.27962854  0.69867612     0.15000
C677        C  0.56781817  0.24749511  0.80868920     0.30500
C678        C  0.54780433  0.23386685  0.76341851    -0.35900
C679        C  0.56396019  0.18838724  0.74449745     0.16500
C680        C  0.59627326  0.15919710  0.76945318     0.22300
C681        C  0.61513980  0.17211226  0.81383559    -0.34000
C682        C  0.60047146  0.21703623  0.83146404     0.16400
O683        O  0.56550145  0.29095761  0.83024236    -0.26000
C684        C  0.59778874  0.28776307  0.86670560     0.06200
C685        C  0.62126746  0.24257784  0.86690992    -0.30900
O686        O  0.61359423  0.12327263  0.74412335    -0.22700
C687        C  0.59310134  0.12745864  0.70109236    -0.02700
C688        C  0.56013018  0.16715887  0.69955409    -0.17100
H689        H  0.52487548  0.25846352  0.74286130     0.20900
H690        H  0.64347361  0.15061849  0.83124813     0.19200
H691        H  0.65416724  0.23146323  0.88561212     0.19200
H692        H  0.54052675  0.18130216  0.66872833     0.15000
C693        C  0.75530790  0.19933498  0.96779177     0.30500
C694        C  0.75502451  0.25051406  0.97085662    -0.35900
C695        C  0.70862527  0.27292968  0.97225778     0.16500
C696        C  0.66549521  0.24651542  0.97744434     0.22300
C697        C  0.66640919  0.19497735  0.97813673    -0.34000
C698        C  0.71226154  0.17282090  0.96965258     0.16400
O699        O  0.79152173  0.17441023  0.94837599    -0.26000
C700        C  0.77162668  0.13211783  0.93403488     0.06200
C701        C  0.72214673  0.12876103  0.94804859    -0.30900
O702        O  0.62713409  0.27079817  0.96112377    -0.22700
C703        C  0.64576515  0.31054017  0.94002805    -0.02700
C704        C  0.69598401  0.31563081  0.95006216    -0.17100
H705        H  0.78776095  0.27128991  0.96191793     0.20900
H706        H  0.63259533  0.17420568  0.97444425     0.19200
H707        H  0.69458108  0.10220050  0.93895306     0.19200
H708        H  0.72209461  0.34146787  0.93570264     0.15000
C709        C  0.70742304  0.38803530  0.81977022     0.30500
C710        C  0.75547598  0.39347024  0.80176275    -0.35900
C711        C  0.75995172  0.39854336  0.75164189     0.16500
C712        C  0.71964798  0.39750397  0.72149242     0.22300
C713        C  0.67149599  0.39709910  0.73999165    -0.34000
C714        C  0.66714947  0.39235375  0.79002923     0.16400
O715        O  0.69576792  0.36948887  0.86210605    -0.26000
C716        C  0.64723228  0.36242521  0.86014951     0.06200
C717        C  0.62746234  0.37855340  0.81655026    -0.30900
O718        O  0.73133965  0.38338497  0.67756586    -0.22700
C719        C  0.77957455  0.37487549  0.67880893    -0.02700
C720        C  0.79965130  0.38798504  0.72354676    -0.17100
H721        H  0.78732911  0.38699197  0.82427412     0.20900
H722        H  0.63981741  0.39318568  0.71661765     0.19200
H723        H  0.59004019  0.37448034  0.80374332     0.19200
H724        H  0.83588740  0.37827978  0.73670483     0.15000
C725        C  0.24725600  0.75984827  0.45794036     0.30500
C726        C  0.24331181  0.70915084  0.46597904    -0.35900
C727        C  0.19668495  0.68810269  0.45821287     0.16500
C728        C  0.15694671  0.71543053  0.44383238     0.22300
C729        C  0.15970682  0.76643680  0.44017422    -0.34000
C730        C  0.20636831  0.78738695  0.44697001     0.16400
O731        O  0.28847816  0.78229336  0.44597565    -0.26000
C732        C  0.27429503  0.82383750  0.42482797     0.06200
C733        C  0.22328074  0.83030483  0.42856009    -0.30900
O734        O  0.12229672  0.68842044  0.42412149    -0.22700
C735        C  0.13946935  0.64271750  0.42517375    -0.02700
C736        C  0.18418948  0.64031483  0.45000234    -0.17100
H737        H  0.27575194  0.68668285  0.47057623     0.20900
H738        H  0.12959889  0.78724870  0.42503254     0.19200
H739        H  0.19983959  0.85718999  0.41218833     0.19200
H740        H  0.20627983  0.60886579  0.45871546     0.15000
C741        C  0.07390719  0.74742795  0.23429179     0.30500
C742        C  0.04830679  0.73077234  0.27589056    -0.35900
C743        C  0.06938419  0.68983399  0.29990238     0.16500
C744        C  0.11146679  0.66774693  0.28279872     0.22300
C745        C  0.13596653  0.68362819  0.24245494    -0.34000
C746        C  0.11639495  0.72411650  0.22032629     0.16400
O747        O  0.06505640  0.78668935  0.20699641    -0.26000
C748        C  0.10279053  0.78697058  0.17562117     0.06200
C749        C  0.13640902  0.74996872  0.18523450    -0.30900
O750        O  0.12908776  0.63458320  0.31103273    -0.22700
C751        C  0.09832491  0.63239084  0.34786855    -0.02700
C752        C  0.05984042  0.66668946  0.34318459    -0.17100
H753        H  0.01609364  0.74941458  0.28961519     0.20900
H754        H  0.16999734  0.66684701  0.23054398     0.19200
H755        H  0.17232939  0.74353334  0.16956124     0.19200
H756        H  0.03179142  0.67579884  0.36934568     0.15000
C757        C  0.21168135  0.88750337  0.20568721     0.30500
C758        C  0.26024633  0.88936275  0.22320062    -0.35900
C759        C  0.26574904  0.89774763  0.27285975     0.16500
C760        C  0.22595795  0.90343523  0.30315971     0.22300
C761        C  0.17785355  0.90638139  0.28490871    -0.34000
C762        C  0.17236511  0.89802001  0.23536648     0.16400
O763        O  0.19774241  0.86591889  0.16521902    -0.26000
C764        C  0.14879176  0.86301944  0.16858126     0.06200
C765        C  0.13117665  0.88463540  0.21075622    -0.30900
O766        O  0.23678402  0.89271764  0.34817339    -0.22700
C767        C  0.28392664  0.87965034  0.34736122    -0.02700
C768        C  0.30459123  0.88614508  0.30159040    -0.17100
H769        H  0.29100529  0.87780065  0.20117905     0.20900
H770        H  0.14627273  0.90755826  0.30865386     0.19200
H771        H  0.09413563  0.88238665  0.22503416     0.19200
H772        H  0.33998883  0.87272410  0.28942348     0.15000
C773        C  0.34664714  0.74659231  0.30633682     0.30500
C774        C  0.37639428  0.71659129  0.27631418    -0.35900
C775        C  0.35062237  0.68837228  0.24134801     0.16500
C776        C  0.30010794  0.69166535  0.23662625     0.22300
C777        C  0.27131888  0.71938799  0.26673856    -0.34000
C778        C  0.29614587  0.74505100  0.30163316     0.16400
O779        O  0.36054186  0.78024593  0.33852169    -0.26000
C780        C  0.31746883  0.79849192  0.35390469     0.06200
C781        C  0.27698211  0.77620568  0.33277252    -0.30900
O782        O  0.28194806  0.66388330  0.20338521    -0.22700
C783        C  0.32020340  0.64002324  0.18594207    -0.02700
C784        C  0.36488700  0.65383679  0.20770595    -0.17100
H785        H  0.41608831  0.71576449  0.27946714     0.20900
H786        H  0.23169801  0.72113965  0.26304747     0.19200
H787        H  0.23840618  0.78575116  0.33632405     0.19200
H788        H  0.40132518  0.63911197  0.20155749     0.15000
C789        C  0.17144370  0.53097242  0.30345346     0.30500
C790        C  0.17152396  0.52840069  0.25262985    -0.35900
C791        C  0.21718598  0.53608278  0.22960450     0.16500
C792        C  0.26032854  0.54081226  0.25522154     0.22300
C793        C  0.26033205  0.54287583  0.30553126    -0.34000
C794        C  0.21431251  0.54034098  0.32815080     0.16400
O795        O  0.13218171  0.54159166  0.32944469    -0.26000
C796        C  0.14924285  0.56339201  0.36948475     0.06200
C797        C  0.20086480  0.56122642  0.37073107    -0.30900
O798        O  0.29708168  0.55607602  0.22861193    -0.22700
C799        C  0.27764946  0.56492045  0.18546140    -0.02700
C800        C  0.22775198  0.55154514  0.18363006    -0.17100
H801        H  0.13737272  0.52840002  0.23252496     0.20900
H802        H  0.29305107  0.55394937  0.32506630     0.19200
H803        H  0.22675423  0.58100812  0.39246545     0.19200
H804        H  0.20138096  0.55767861  0.15522329     0.15000
C805        C  0.22075300  0.66129668  0.07833055     0.30500
C806        C  0.17259575  0.67871979  0.07152686    -0.35900
C807        C  0.16716560  0.72979500  0.06779678     0.16500
C808        C  0.20676080  0.76130707  0.07266040     0.22300
C809        C  0.25517082  0.74346606  0.07176167    -0.34000
C810        C  0.26055782  0.69241926  0.07396058     0.16400
O811        O  0.23224162  0.62033002  0.10113598    -0.26000
C812        C  0.28030442  0.62447043  0.11015767     0.06200
C813        C  0.30008919  0.66723779  0.09035399    -0.30900
O814        O  0.19394983  0.80366335  0.09213483    -0.22700
C815        C  0.14550312  0.79982529  0.09885890    -0.02700
C816        C  0.12654486  0.75636441  0.07941052    -0.17100
H817        H  0.14103283  0.65526102  0.07762077     0.20900
H818        H  0.28620263  0.76756873  0.07821015     0.19200
H819        H  0.33605316  0.68270413  0.09796720     0.19200
H820        H  0.09021539  0.74142250  0.08621463     0.15000
C821        C  0.23071385  0.39251377  0.81382308     0.30500
C822        C  0.18263580  0.40044063  0.79673619    -0.35900
C823        C  0.17668231  0.40183229  0.74640855     0.16500
C824        C  0.21528027  0.39401090  0.71511652     0.22300
C825        C  0.26393602  0.39117860  0.73219539    -0.34000
C826        C  0.26997137  0.39118928  0.78243147     0.16400
O827        O  0.24252440  0.37659420  0.85732635    -0.26000
C828        C  0.29037433  0.36590666  0.85420671     0.06200
C829        C  0.30956232  0.37710257  0.80881443    -0.30900
O830        O  0.20021496  0.37815167  0.67250242    -0.22700
C831        C  0.15116794  0.37631324  0.67585938    -0.02700
C832        C  0.13484984  0.39477958  0.72024906    -0.17100
H833        H  0.15120866  0.39916890  0.82065973     0.20900
H834        H  0.29424158  0.38260434  0.70833226     0.19200
H835        H  0.34567535  0.36804092  0.79497343     0.19200
H836        H  0.09812843  0.39106834  0.73505825     0.15000
C837        C  0.22175297  0.27356105  0.95028459     0.30500
C838        C  0.17306063  0.25663723  0.94679347    -0.35900
C839        C  0.16640103  0.20569357  0.94755955     0.16500
C840        C  0.20516013  0.17336194  0.95003571     0.22300
C841        C  0.25314565  0.19048320  0.95974132    -0.34000
C842        C  0.25965900  0.24176085  0.96079462     0.16400
O843        O  0.23772340  0.31507946  0.93145816    -0.26000
C844        C  0.28658144  0.31067480  0.93057276     0.06200
C845        C  0.30199362  0.26750369  0.95342994    -0.30900
O846        O  0.19327740  0.12926023  0.93329658    -0.22700
C847        C  0.14578388  0.13299559  0.92128315    -0.02700
C848        C  0.12702399  0.17935801  0.93225490    -0.17100
H849        H  0.14344557  0.28084056  0.93634530     0.20900
H850        H  0.28436012  0.16590917  0.95945841     0.19200
H851        H  0.33844517  0.25158357  0.95124024     0.19200
H852        H  0.09159067  0.19395962  0.92170118     0.15000
C853        C  0.12664654  0.24491166  0.73427506     0.30500
C854        C  0.15371977  0.20927322  0.75676357    -0.35900
C855        C  0.12782083  0.17955153  0.78756574     0.16500
C856        C  0.07825480  0.18407891  0.79733028     0.22300
C857        C  0.04987709  0.21957804  0.77249291    -0.34000
C858        C  0.07637768  0.24965252  0.73986379     0.16400
O859        O  0.14578652  0.27603867  0.70480563    -0.26000
C860        C  0.10793870  0.30107148  0.68815337     0.06200
C861        C  0.06296443  0.28674056  0.70885325    -0.30900
O862        O  0.06433314  0.15420154  0.83268611    -0.22700
C863        C  0.10615053  0.13083655  0.84400391    -0.02700
C864        C  0.14582536  0.14534281  0.81619044    -0.17100
H865        H  0.19292846  0.20552724  0.75084549     0.20900
H866        H  0.01076477  0.22396407  0.77865677     0.19200
H867        H  0.02648541  0.30090027  0.70180296     0.19200
H868        H  0.18379288  0.13393295  0.81924983     0.15000
C869        C  0.35485263  0.17241112  0.74847962     0.30500
C870        C  0.38442200  0.21008277  0.76896992    -0.35900
C871        C  0.36181861  0.23749233  0.80641334     0.16500
C872        C  0.31452839  0.22701111  0.82130801     0.22300
C873        C  0.28642654  0.19040579  0.80203055    -0.34000
C874        C  0.30773357  0.16483143  0.76523643     0.16400
O875        O  0.36447686  0.14380745  0.71081447    -0.26000
C876        C  0.32234226  0.11872823  0.70486477     0.06200
C877        C  0.28599248  0.13247705  0.73703648    -0.30900
O878        O  0.29694164  0.25769809  0.85181359    -0.22700
C879        C  0.33291845  0.28902798  0.85969067    -0.02700
C880        C  0.37510965  0.27891961  0.83202876    -0.17100
H881        H  0.42087348  0.21860882  0.75558349     0.20900
H882        H  0.24899880  0.18435385  0.81360350     0.19200
H883        H  0.24770321  0.12125360  0.73842076     0.19200
H884        H  0.40849970  0.30036938  0.82889036     0.15000
C885        C  0.21061039  0.26202012  0.59635646     0.30500
C886        C  0.25853652  0.24288134  0.59798355    -0.35900
C887        C  0.26227790  0.19166500  0.60063270     0.16500
C888        C  0.22165114  0.16141483  0.60287508     0.22300
C889        C  0.17407465  0.18024471  0.59684860    -0.34000
C890        C  0.17041738  0.23131768  0.59278123     0.16400
O891        O  0.19809862  0.30706943  0.60892326    -0.26000
C892        C  0.14909383  0.30563847  0.61265791     0.06200
C893        C  0.13021611  0.25979084  0.59900160    -0.30900
O894        O  0.23222123  0.11773341  0.62032327    -0.22700
C895        C  0.28047688  0.11935142  0.62871751    -0.02700
C896        C  0.30116760  0.16400783  0.61445311    -0.17100
H897        H  0.29028464  0.26630867  0.60335053     0.20900
H898        H  0.14173883  0.15738877  0.60097520     0.19200
H899        H  0.09317105  0.24639019  0.60522563     0.19200
H900        H  0.33799229  0.17725836  0.62196681     0.15000
C901        C  0.25596896  0.01465208  0.75530183     0.30500
C902        C  0.25352441  0.01583005  0.80589115    -0.35900
C903        C  0.20647804  0.02097561  0.82638514     0.16500
C904        C  0.16425407  0.02006879  0.79894425     0.22300
C905        C  0.16657662  0.01691343  0.74845445    -0.34000
C906        C  0.21381425  0.01657423  0.72778679     0.16400
O907        O  0.29521699  0.02825538  0.73093505    -0.26000
C908        C  0.27837786  0.04350345  0.68835153     0.06200
C909        C  0.22793267  0.03360846  0.68351183    -0.30900
O910        O  0.12607315  0.03764974  0.82238543    -0.22700
C911        C  0.14387917  0.05408095  0.86429178    -0.02700
C912        C  0.19369215  0.04194804  0.86956426    -0.17100
H913        H  0.28646038  0.02148658  0.82718063     0.20900
H914        H  0.13412066  0.02327406  0.72673987     0.19200
H915        H  0.20301296  0.04522416  0.65560677     0.19200
H916        H  0.21930462  0.05436030  0.89668576     0.15000
C917        C  0.07843824  0.24281954  0.31013844     0.30500
C918        C  0.05091413  0.22059508  0.27228423    -0.35900
C919        C  0.07627629  0.18493560  0.24440825     0.16500
C920        C  0.12495961  0.17417915  0.25341060     0.22300
C921        C  0.15095215  0.19427388  0.29122811    -0.34000
C922        C  0.12594982  0.22800725  0.31897619     0.16400
O923        O  0.06624407  0.28113403  0.33745838    -0.26000
C924        C  0.10642679  0.28911175  0.36475929     0.06200
C925        C  0.14411993  0.25653138  0.35371485    -0.30900
O926        O  0.14371361  0.14289654  0.22357703    -0.22700
C927        C  0.10689146  0.13020183  0.19491122    -0.02700
C928        C  0.06322727  0.15551645  0.20566922    -0.17100
H929        H  0.01342184  0.23124188  0.26431699     0.20900
H930        H  0.18899093  0.18482061  0.29756500     0.19200
H931        H  0.18197619  0.25709264  0.36578433     0.19200
H932        H  0.02768948  0.15234270  0.18829124     0.15000
C933        C  0.17769318  0.25954120  0.47291886     0.30500
C934        C  0.17985983  0.20901891  0.48284151    -0.35900
C935        C  0.22625755  0.18651730  0.47855393     0.16500
C936        C  0.26817232  0.21286157  0.46830442     0.22300
C937        C  0.26637678  0.26349134  0.46047382    -0.34000
C938        C  0.21961598  0.28516489  0.46099221     0.16400
O939        O  0.13747149  0.28189892  0.45820999    -0.26000
C940        C  0.15304501  0.32048377  0.43283195     0.06200
C941        C  0.20442055  0.32494093  0.43537668    -0.30900
O942        O  0.30355392  0.18499981  0.45141654    -0.22700
C943        C  0.28382323  0.14037871  0.44681188    -0.02700
C944        C  0.23706192  0.13861965  0.46793083    -0.17100
H945        H  0.14650110  0.18741936  0.48552337     0.20900
H946        H  0.29787774  0.28262540  0.44571989     0.19200
H947        H  0.22893099  0.34570920  0.41303206     0.19200
H948        H  0.21180852  0.10823362  0.46981681     0.15000
C949        C  0.15551579  0.03352179  0.26542875     0.30500
C950        C  0.15632466  0.04514189  0.31466396    -0.35900
C951        C  0.20282562  0.04815453  0.33659010     0.16500
C952        C  0.24566648  0.03712230  0.31264543     0.22300
C953        C  0.24483163  0.02405367  0.26350954    -0.34000
C954        C  0.19842536  0.02425530  0.24067635     0.16400
O955        O  0.11901024  0.04540941  0.23666050    -0.26000
C956        C  0.13879781  0.04827947  0.19273314     0.06200
C957        C  0.18744771  0.03092104  0.19300770    -0.30900
O958        O  0.28513845  0.05146994  0.33677957    -0.22700
C959        C  0.26802815  0.07370203  0.37644235    -0.02700
C960        C  0.21633781  0.07248563  0.37751728    -0.17100
H961        H  0.12362912  0.05847062  0.33267960     0.20900
H962        H  0.27859882  0.02102904  0.24301459     0.19200
H963        H  0.21408646  0.03152777  0.16419570     0.19200
H964        H  0.19095458  0.09334192  0.39885916     0.15000
C965        C  0.34786556  0.19245772  0.31500616     0.30500
C966        C  0.37840340  0.21577746  0.28051807    -0.35900
C967        C  0.35634546  0.25483536  0.25482603     0.16500
C968        C  0.30873291  0.26939767  0.26415793     0.22300
C969        C  0.27933844  0.24712930  0.29784188    -0.34000
C970        C  0.30003848  0.20801502  0.32122854     0.16400
O971        O  0.35807449  0.15422539  0.34291406    -0.26000
C972        C  0.31528879  0.14602540  0.36561858     0.06200
C973        C  0.27830320  0.17784230  0.35182629    -0.30900
O974        O  0.29166085  0.30041525  0.23350030    -0.22700
C975        C  0.32793870  0.30801177  0.20270316    -0.02700
C976        C  0.37025224  0.28085716  0.21461795    -0.17100
H977        H  0.41527385  0.20309340  0.27275586     0.20900
H978        H  0.24138264  0.25785629  0.30295795     0.19200
H979        H  0.24077285  0.17963626  0.36492715     0.19200
H980        H  0.40372415  0.27643247  0.19402730     0.15000
C981        C  0.24160075  0.40662024  0.23092931     0.30500
C982        C  0.23721396  0.41927330  0.28001264    -0.35900
C983        C  0.19265401  0.40647619  0.30270378     0.16500
C984        C  0.15429608  0.38536892  0.27779915     0.22300
C985        C  0.15717671  0.37634140  0.22833773    -0.34000
C986        C  0.20258966  0.38597761  0.20644485     0.16400
O987        O  0.28397160  0.39810659  0.20915803    -0.26000
C988        C  0.27300314  0.36895326  0.17179166     0.06200
C989        C  0.22191417  0.36291210  0.16731855    -0.30900
O990        O  0.12234218  0.36414494  0.30630771    -0.22700
C991        C  0.14033273  0.36981475  0.35063745    -0.02700
C992        C  0.18268990  0.39914151  0.35054811    -0.17100
H993        H  0.26908910  0.43039631  0.30077352     0.20900
H994        H  0.12910041  0.35493146  0.21022078     0.19200
H995        H  0.20127679  0.33723374  0.14585949     0.19200
H996        H  0.20523974  0.41084792  0.38038473     0.15000
C997        C  0.24232946  0.24504019  0.08859394     0.30500
C998        C  0.19525181  0.22668077  0.07790890    -0.35900
C999        C  0.18705732  0.17723515  0.08877885     0.16500
C1000       C  0.22324922  0.14765559  0.10778637     0.22300
C1001       C  0.27170542  0.16458964  0.11298482    -0.34000
C1002       C  0.27950671  0.21430884  0.10336811     0.16400
O1003       O  0.25187384  0.29129966  0.09883339    -0.26000
C1004       C  0.29516073  0.29059046  0.12129960     0.06200
C1005       C  0.31538990  0.24356168  0.12147041    -0.30900
O1006       O  0.20489920  0.10969419  0.13087351    -0.22700
C1007       C  0.15634394  0.11409883  0.12627317    -0.02700
C1008       C  0.14354748  0.15472824  0.09859622    -0.17100
H1009       H  0.16494012  0.25101762  0.06994011     0.20900
H1010       H  0.29917115  0.14298900  0.13146742     0.19200
H1011       H  0.34785908  0.23087489  0.13995687     0.19200
H1012       H  0.10711296  0.17025335  0.09456044     0.15000
loop_ 
_geom_bond_atom_site_label_1 
_geom_bond_atom_site_label_2 
_geom_bond_distance 
_geom_bond_site_symmetry_2 
_ccdc_geom_bond_type 
C1            C9   1.503       .  S
C1          C975   1.527       .  S
C1          C988   1.559       .  S
C1         C1004   1.543       .  S
C2           C96   1.514       .  S
C2          C943   1.556       .  S
C2          C959   1.553       .  S
C2          C972   1.521       .  S
C3          C135   1.519       .  S
C3          C927   1.522       .  S
C3          C956   1.553       .  S
C3         C1007   1.538       .  S
C4          C222   1.516       .  S
C4          C924   1.540       .  S
C4          C940   1.551       .  S
C4          C991   1.546       .  S
C5          C106   1.503       .  S
C5          C876   1.520       .  S
C5          C895   1.537       .  S
C5          C908   1.558       .  S
C6          C165   1.511       .  S
C6          C847   1.549       .  S
C6          C863   1.527       .  S
C6          C911   1.548       .  S
C7          C192   1.520       .  S
C7          C831   1.544       .  S
C7          C860   1.520       .  S
C7          C892   1.545       .  S
C8           C29   1.494       .  S
C8          C828   1.539       .  S
C8          C844   1.550       .  S
C8          C879   1.513       .  S
C9           N27   1.345       .  A
C9           C46   1.472       .  S
N10          N27   1.316       .  A
N10          N32   1.317       .  A
N10         Co47   2.062       .  S
C11          N36   1.333       .  A
C11          C49   1.459       .  S
C11          H56   1.082       .  S
H12          C53   1.082       .  S
C13          N37   1.345       .  A
C13          C17   1.474       .  S
C13          H42   1.081       .  S
Co14         N32   2.087       .  S
Co14         N22   2.083       .  S
Co14         N54   2.077   1_554  S
Co14         N30   2.094   1_554  S
Co14        Cl58   2.508       .  S
N15          C53   1.323       .  A
N15          N22   1.316       .  A
N15         Co16   2.054       .  S
Co16         N19   2.062       .  S
Co16         N36   2.068   1_554  S
Co16         N23   2.059   1_554  S
Co16        Cl58   2.365       .  S
C17         C129   1.496       .  S
C17          N55   1.344       .  A
N18          N25   1.317       .  A
N18          N48   1.329       .  A
N18         Co51   2.095       .  S
N19          N37   1.315       .  A
N19          N55   1.314       .  A
N20          C49   1.359       .  A
N20          N30   1.328       .  A
H21          C46   1.081       .  S
N22          N43   1.329       .  A
N23          N41   1.316       .  A
N23          N28   1.314       .  A
C24         C131   1.504       .  S
C24          N28   1.345       .  A
C24          C52   1.476       .  S
N25          C40   1.328       .  A
N25         Co47   2.065       .  S
C26          N54   1.343       .  A
C26          C29   1.469       .  S
C26          H60   1.081       .  S
C29          N50   1.347       .  A
N30          N36   1.316       .  A
N31          C57   1.322       .  A
N31          N33   1.316       .  A
N31         Co47   2.056   1_556  S
N32          C46   1.346       .  A
N33          N61   1.330       .  A
N33         Co51   2.082   1_556  S
H34          C57   1.082       .  S
H35          C52   1.080       .  S
N37         Co51   2.081       .  S
N38          N50   1.316       .  A
N38          N54   1.316       .  A
N38         Co47   2.071   1_556  S
C39         C190   1.502       .  S
C39          N43   1.357       .  A
C39          C53   1.454       .  S
C40          C59   1.456       .  S
C40          H44   1.082       .  S
N41          C52   1.348       .  A
N41         Co51   2.092   1_556  S
C45         C123   1.500       .  S
C45          N61   1.357       .  A
C45          C57   1.453       .  S
Co47        Cl58   2.364       .  S
N48          C59   1.359       .  A
C49         C119   1.507       .  S
Co51        Cl58   2.514       .  S
C59          C62   1.505       .  S
C62         C783   1.513       .  S
C62         C799   1.543       .  S
C62         C812   1.541       .  S
C63         C155   1.520       .  S
C63         C748   1.542       .  S
C63         C764   1.531       .  S
C63         C815   1.553       .  S
C64         C200   1.517       .  S
C64         C735   1.545       .  S
C64         C751   1.540       .  S
C64         C796   1.562       .  S
C65          C66   1.504       .  S
C65         C732   1.547       .  S
C65         C767   1.553       .  S
C65         C780   1.522       .  S
C66          N84   1.362       .  A
C66         C103   1.452       .  S
N67          N84   1.332       .  A
N67          N89   1.317       .  A
N67        Co104   2.106       .  S
C68          N93   1.349       .  A
C68         C106   1.477       .  S
C68         H113   1.081       .  S
H69         C110   1.081       .  S
C70          N94   1.327       .  A
C70          C74   1.454       .  S
C70          H99   1.082       .  S
Co71         N89   2.058       .  S
Co71         N79   2.071   1_565  S
Co71        N111   2.072       .  S
Co71         N87   2.058   1_565  S
Co71       Cl115   2.368       .  S
N72         C110   1.351       .  A
N72          N79   1.318       .  A
N72         Co73   2.111       .  S
Co73         N76   2.104       .  S
Co73         N93   2.100       .  S
Co73         N80   2.108       .  S
Co73       Cl115   2.517   1_545  S
C74         C188   1.509       .  S
C74         N112   1.362       .  A
N75          N82   1.317       .  A
N75         N105   1.315       .  A
N75        Co108   2.060       .  S
N76          N94   1.317       .  A
N76         N112   1.332       .  A
N77         C106   1.343       .  A
N77          N87   1.314       .  A
H78         C103   1.082       .  S
N79         N100   1.319       .  A
N80          N98   1.318       .  A
N80          N85   1.330       .  A
C81         C121   1.511       .  S
C81          N85   1.361       .  A
C81         C109   1.456       .  S
N82          C97   1.348       .  A
N82        Co104   2.100       .  S
C83         N111   1.329       .  A
C83          C86   1.457       .  S
C83         H117   1.082       .  S
C86         C124   1.511       .  S
C86         N107   1.362       .  A
N87          N93   1.317       .  A
N88         C114   1.349       .  A
N88          N90   1.318       .  A
N88        Co104   2.100       .  S
N89         C103   1.326       .  A
N90         N118   1.318       .  A
N90        Co108   2.074       .  S
H91         C114   1.081       .  S
H92         C109   1.082   1_565  S
N94        Co108   2.064   1_545  S
N95         N107   1.332       .  A
N95         N111   1.317       .  A
N95        Co104   2.101       .  S
C96         N100   1.346       .  A
C96         C110   1.479       .  S
C97         C116   1.478       .  S
C97         H101   1.081       .  S
N98         C109   1.331       .  A
N98        Co108   2.063   1_545  S
C102        C133   1.508       .  S
C102        N118   1.347       .  A
C102        C114   1.475       .  S
Co104      Cl115   2.524       .  S
N105        C116   1.342       .  A
Co108      Cl115   2.369       .  S
C116        C127   1.503       .  S
C119        C684   1.542       .  S
C119        C703   1.553       .  S
C119        C716   1.541       .  S
C120        C212   1.527       .  S
C120        C652   1.546       .  S
C120        C671   1.537       .  S
C120        C719   1.551       .  S
C121        C636   1.563       .  S
C121        C655   1.542       .  S
C121        C687   1.542       .  S
C122        C143   1.515       .  S
C122        C639   1.545       .  S
C122        C668   1.525       .  S
C122        C700   1.546       .  S
C123        C588   1.550       .  S
C123        C607   1.540       .  S
C123        C623   1.512       .  S
C124        C556   1.548       .  S
C124        C575   1.545       .  S
C124        C620   1.527       .  S
C125        C242   1.515       .  S
C125        C543   1.524       .  S
C125        C559   1.547       .  S
C125        C591   1.542       .  S
C126        C175   1.508       .  S
C126        C540   1.515       .  S
C126        C572   1.545       .  S
C126        C604   1.546       .  S
C127        C495   1.513       .  S
C127        C508   1.548       .  S
C127        C527   1.540       .  S
C128        C207   1.515       .  S
C128        C463   1.562       .  S
C128        C479   1.529       .  S
C128        C524   1.545       .  S
C129        C444   1.546       .  S
C129        C460   1.546       .  S
C129        C492   1.502       .  S
C130        C171   1.515       .  S
C130        C447   1.555       .  S
C130        C476   1.536       .  S
C130        C511   1.536       .  S
C131        C396   1.523       .  S
C131        C412   1.555       .  S
C131        C428   1.531       .  S
C132        C228   1.516       .  S
C132        C364   1.546       .  S
C132        C383   1.520       .  S
C132        C415   1.547       .  S
C133        C348   1.543       .  S
C133        C367   1.552       .  S
C133        C399   1.528       .  S
C134        C150   1.516       .  S
C134        C351   1.545       .  S
C134        C380   1.532       .  S
C134        C431   1.538       .  S
C135        N153   1.360       .  A
C135        C172   1.459       .  S
N136        N153   1.333       .  A
N136        N158   1.320       .  A
N136       Co173   2.106   1_445  S
C137        N162   1.350       .  A
C137        C175   1.475       .  S
C137        H182   1.081       .  S
H138        C179   1.081       .  S
C139        N163   1.328       .  A
C139        C143   1.457       .  S
C139        H168   1.082       .  S
Co140       N158   2.072   1_565  S
Co140       N148   2.082   1_564  S
Co140       N180   2.071       .  S
Co140       N156   2.081   1_554  S
Co140      Cl184   2.366   1_455  S
N141        C179   1.350       .  A
N141        N148   1.318       .  A
N141       Co142   2.098   1_445  S
Co142       N145   2.107   1_565  S
Co142       N162   2.098   1_655  S
Co142       N149   2.095       .  S
Co142      Cl184   2.532   1_556  S
C143        N181   1.363       .  A
N144        N151   1.318       .  A
N144        N174   1.317       .  A
N144       Co177   2.076   1_545  S
N145        N163   1.318       .  A
N145        N181   1.333       .  A
N146        C175   1.348       .  A
N146        N156   1.318       .  A
H147        C172   1.082       .  S
N148        N169   1.319       .  A
N149        N167   1.317       .  A
N149        N154   1.333       .  A
C150        N154   1.360       .  A
C150        C178   1.462       .  S
N151        C166   1.355       .  A
N151       Co173   2.113   1_545  S
C152        N180   1.326       .  A
C152        C155   1.457       .  S
C152        H186   1.082       .  S
C155        N176   1.362       .  A
N156        N162   1.318       .  A
N157        C183   1.352       .  A
N157        N159   1.318       .  A
N157       Co173   2.102       .  S
N158        C172   1.328       .  A
N159        N187   1.316       .  A
N159       Co177   2.075       .  S
H160        C183   1.081       .  S
H161        C178   1.082       .  S
N163       Co177   2.071   1_546  S
N164        N176   1.335       .  A
N164        N180   1.318       .  A
N164       Co173   2.108   1_455  S
C165        N169   1.349       .  A
C165        C179   1.474       .  S
C166        C185   1.480       .  S
C166        H170   1.081       .  S
N167        C178   1.328       .  A
N167       Co177   2.076   1_556  S
C171        N187   1.347       .  A
C171        C183   1.476       .  S
Co173      Cl184   2.533       .  S
N174        C185   1.347       .  A
Co177      Cl184   2.364       .  S
C185        C189   1.518       .  S
C188        C303   1.527       .  S
C188        C319   1.551       .  S
C188        C335   1.538       .  S
C189        C268   1.543       .  S
C189        C287   1.529       .  S
C189        C332   1.542       .  S
C190        C255   1.558       .  S
C190        C271   1.540       .  S
C190        C300   1.528       .  S
C191        C232   1.515       .  S
C191        C252   1.535       .  S
C191        C284   1.519       .  S
C191        C316   1.546       .  S
C192        N210   1.352       .  A
C192        C229   1.468       .  S
N193        N210   1.328       .  A
N193        N215   1.319       .  A
N193       Co230   2.085   1_455  S
C194        N219   1.337       .  A
C194        C232   1.464       .  S
C194        H239   1.081       .  S
H195        C236   1.082       .  S
C196        N220   1.342       .  A
C196        C200   1.466       .  S
C196        H225   1.082       .  S
Co197       N215   2.088   1_655  S
Co197       N205   2.097   1_655  S
Co197       N237   2.103       .  S
Co197       N213   2.084       .  S
Co197      Cl241   2.456       .  S
N198        C236   1.339       .  A
N198        N205   1.321       .  A
N198       Co199   2.084   1_455  S
Co199       N202   2.089   1_655  S
Co199       N219   2.085       .  S
Co199       N206   2.088       .  S
Co199      Cl241   2.459       .  S
C200        N238   1.353       .  A
N201        N208   1.319       .  A
N201        N231   1.323       .  A
N201       Co234   2.081   1_455  S
N202        N220   1.320       .  A
N202        N238   1.326       .  A
N203        C232   1.352       .  A
N203        N213   1.324       .  A
H204        C229   1.080       .  S
N205        N226   1.327       .  A
N206        N224   1.320       .  A
N206        N211   1.325       .  A
C207        N211   1.352       .  A
C207        C235   1.465       .  S
N208        C223   1.336       .  A
N208       Co230   2.077   1_455  S
C209        N237   1.344       .  A
C209        C212   1.472       .  S
C209        H243   1.081       .  S
C212        N233   1.354       .  A
N213        N219   1.321       .  A
N214        C240   1.338       .  A
N214        N216   1.320       .  A
N214       Co230   2.084       .  S
N215        C229   1.336       .  A
N216        N244   1.325       .  A
N216       Co234   2.086       .  S
H217        C240   1.081       .  S
H218        C235   1.081       .  S
N220       Co234   2.095   1_455  S
N221        N233   1.326       .  A
N221        N237   1.319       .  A
N221       Co230   2.087       .  S
C222        N226   1.354       .  A
C222        C236   1.464       .  S
C223        C242   1.464       .  S
C223        H227   1.080       .  S
N224        C235   1.341       .  A
N224       Co234   2.090       .  S
C228        N244   1.352       .  A
C228        C240   1.465       .  S
Co230      Cl241   2.458       .  S
N231        C242   1.353       .  A
Co234      Cl241   2.458       .  S
C245        C250   1.377       .  A
C245        C246   1.403       .  A
C245        O251   1.308       .  A
C246        H257   1.083       .  S
C246        C247   1.399       .  A
C247        C256   1.368       .  A
C247        C248   1.377       .  A
C248        C249   1.409       .  A
C248        O254   1.312       .  A
C249        H258   1.082       .  S
C249        C250   1.403       .  A
C250        C253   1.376       .  A
O251        C252   1.335       .  A
C252        C253   1.397       .  A
C253        H259   1.080       .  S
O254        C255   1.338       .  A
C255        C256   1.399       .  A
C256        H260   1.077       .  S
C261        C266   1.380       .  A
C261        C262   1.404       .  A
C261        O267   1.323       .  A
C262        H273   1.082       .  S
C262        C263   1.405       .  A
C263        C272   1.357       .  A
C263        C264   1.376       .  A
C264        C265   1.402       .  A
C264        O270   1.322       .  A
C265        H274   1.082       .  S
C265        C266   1.406       .  A
C266        C269   1.358       .  A
O267        C268   1.334       .  A
C268        C269   1.400       .  A
C269        H275   1.083       .  S
O270        C271   1.331       .  A
C271        C272   1.401       .  A
C272        H276   1.079       .  S
C277        C282   1.381       .  A
C277        C278   1.378       .  A
C277        O283   1.297       .  A
C278        H289   1.082       .  S
C278        C279   1.378       .  A
C279        C288   1.325       .  A
C279        C280   1.378       .  A
C280        C281   1.419       .  A
C280        O286   1.335       .  A
C281        H290   1.082       .  S
C281        C282   1.420       .  A
C282        C285   1.379       .  A
O283        C284   1.322       .  A
C284        C285   1.404       .  A
C285        H291   1.082       .  S
O286        C287   1.340       .  A
C287        C288   1.389       .  A
C288        H292   1.083       .  S
C293        C298   1.377       .  A
C293        C294   1.370       .  A
C293        O299   1.286       .  A
C294        H305   1.084       .  S
C294        C295   1.369       .  A
C295        C304   1.317       .  A
C295        C296   1.375       .  A
C296        C297   1.421       .  A
C296        O302   1.334       .  A
C297        H306   1.081       .  S
C297        C298   1.421       .  A
C298        C301   1.383       .  A
O299        C300   1.320       .  A
C300        C301   1.409       .  A
C301        H307   1.082       .  S
O302        C303   1.343       .  A
C303        C304   1.385       .  A
C304        H308   1.081       .  S
C309        C314   1.377       .  A
C309        C310   1.408       .  A
C309        O315   1.330       .  A
C310        H321   1.082       .  S
C310        C311   1.414       .  A
C311        C320   1.362       .  A
C311        C312   1.381       .  A
C312        C313   1.402       .  A
C312        O318   1.324       .  A
C313        H322   1.082       .  S
C313        C314   1.405       .  A
C314        C317   1.352       .  A
O315        C316   1.336       .  A
C316        C317   1.402       .  A
C317        H323   1.083       .  S
O318        C319   1.333       .  A
C319        C320   1.406       .  A
C320        H324   1.083       .  S
C325        C330   1.381       .  A
C325        C326   1.403       .  A
C325        O331   1.322       .  A
C326        H337   1.082       .  S
C326        C327   1.404       .  A
C327        C336   1.356       .  A
C327        C328   1.378       .  A
C328        C329   1.406       .  A
C328        O334   1.328       .  A
C329        H338   1.082       .  S
C329        C330   1.410       .  A
C330        C333   1.362       .  A
O331        C332   1.333       .  A
C332        C333   1.402       .  A
C333        H339   1.083       .  S
O334        C335   1.334       .  A
C335        C336   1.398       .  A
C336        H340   1.082       .  S
C341        C346   1.377       .  A
C341        C342   1.407       .  A
C341        O347   1.328       .  A
C342        H353   1.082       .  S
C342        C343   1.411       .  A
C343        C352   1.363       .  A
C343        C344   1.380       .  A
C344        C345   1.403       .  A
C344        O350   1.322       .  A
C345        H354   1.082       .  S
C345        C346   1.404       .  A
C346        C349   1.355       .  A
O347        C348   1.334       .  A
C348        C349   1.400       .  A
C349        H355   1.082       .  S
O350        C351   1.333       .  A
C351        C352   1.404       .  A
C352        H356   1.083       .  S
C357        C362   1.376       .  A
C357        C358   1.409       .  A
C357        O363   1.314       .  A
C358        H369   1.082       .  S
C358        C359   1.405       .  A
C359        C368   1.375       .  A
C359        C360   1.377       .  A
C360        C361   1.411       .  A
C360        O366   1.316       .  A
C361        H370   1.082       .  S
C361        C362   1.405       .  A
C362        C365   1.377       .  A
O363        C364   1.339       .  A
C364        C365   1.400       .  A
C365        H371   1.079       .  S
O366        C367   1.338       .  A
C367        C368   1.401       .  A
C368        H372   1.079       .  S
C373        C378   1.377       .  A
C373        C374   1.421       .  A
C373        O379   1.338       .  A
C374        H385   1.081       .  S
C374        C375   1.423       .  A
C375        C384   1.381       .  A
C375        C376   1.380       .  A
C376        C377   1.375       .  A
C376        O382   1.295       .  A
C377        H386   1.081       .  S
C377        C378   1.374       .  A
C378        C381   1.321       .  A
O379        C380   1.342       .  A
C380        C381   1.387       .  A
C381        H387   1.083       .  S
O382        C383   1.321       .  A
C383        C384   1.406       .  A
C384        H388   1.082       .  S
C389        C394   1.377       .  A
C389        C390   1.373       .  A
C389        O395   1.288       .  A
C390        H401   1.083       .  S
C390        C391   1.373       .  A
C391        C400   1.323       .  A
C391        C392   1.376       .  A
C392        C393   1.419       .  A
C392        O398   1.332       .  A
C393        H402   1.080       .  S
C393        C394   1.418       .  A
C394        C397   1.381       .  A
O395        C396   1.321       .  A
C396        C397   1.406       .  A
C397        H403   1.079       .  S
O398        C399   1.341       .  A
C399        C400   1.387       .  A
C400        H404   1.082       .  S
C405        C410   1.380       .  A
C405        C406   1.401       .  A
C405        O411   1.323       .  A
C406        H417   1.083       .  S
C406        C407   1.404       .  A
C407        C416   1.352       .  A
C407        C408   1.378       .  A
C408        C409   1.408       .  A
C408        O414   1.331       .  A
C409        H418   1.082       .  S
C409        C410   1.413       .  A
C410        C413   1.362       .  A
O411        C412   1.332       .  A
C412        C413   1.405       .  A
C413        H419   1.083       .  S
O414        C415   1.335       .  A
C415        C416   1.401       .  A
C416        H420   1.083       .  S
C421        C426   1.380       .  A
C421        C422   1.402       .  A
C421        O427   1.322       .  A
C422        H433   1.083       .  S
C422        C423   1.404       .  A
C423        C432   1.355       .  A
C423        C424   1.381       .  A
C424        C425   1.402       .  A
C424        O430   1.323       .  A
C425        H434   1.082       .  S
C425        C426   1.405       .  A
C426        C429   1.357       .  A
O427        C428   1.332       .  A
C428        C429   1.398       .  A
C429        H435   1.082       .  S
O430        C431   1.331       .  A
C431        C432   1.398       .  A
C432        H436   1.083       .  S
C437        C442   1.378       .  A
C437        C438   1.406       .  A
C437        O443   1.329       .  A
C438        H449   1.082       .  S
C438        C439   1.412       .  A
C439        C448   1.361       .  A
C439        C440   1.382       .  A
C440        C441   1.403       .  A
C440        O446   1.326       .  A
C441        H450   1.083       .  S
C441        C442   1.406       .  A
C442        C445   1.354       .  A
O443        C444   1.333       .  A
C444        C445   1.403       .  A
C445        H451   1.083       .  S
O446        C447   1.333       .  A
C447        C448   1.403       .  A
C448        H452   1.083       .  S
C453        C458   1.376       .  A
C453        C454   1.408       .  A
C453        O459   1.314       .  A
C454        H465   1.082       .  S
C454        C455   1.405       .  A
C455        C464   1.371       .  A
C455        C456   1.375       .  A
C456        C457   1.412       .  A
C456        O462   1.317       .  A
C457        H466   1.082       .  S
C457        C458   1.407       .  A
C458        C461   1.377       .  A
O459        C460   1.338       .  A
C460        C461   1.400       .  A
C461        H467   1.080       .  S
O462        C463   1.342       .  A
C463        C464   1.403       .  A
C464        H468   1.077       .  S
C469        C474   1.375       .  A
C469        C470   1.422       .  A
C469        O475   1.335       .  A
C470        H481   1.082       .  S
C470        C471   1.423       .  A
C471        C480   1.382       .  A
C471        C472   1.378       .  A
C472        C473   1.373       .  A
C472        O478   1.291       .  A
C473        H482   1.084       .  S
C473        C474   1.373       .  A
C474        C477   1.321       .  A
O475        C476   1.344       .  A
C476        C477   1.389       .  A
C477        H483   1.082       .  S
O478        C479   1.320       .  A
C479        C480   1.409       .  A
C480        H484   1.082       .  S
C485        C490   1.381       .  A
C485        C486   1.369       .  A
C485        O491   1.286       .  A
C486        H497   1.082       .  S
C486        C487   1.367       .  A
C487        C496   1.317       .  A
C487        C488   1.378       .  A
C488        C489   1.417       .  A
C488        O494   1.330       .  A
C489        H498   1.081       .  S
C489        C490   1.417       .  A
C490        C493   1.379       .  A
O491        C492   1.317       .  A
C492        C493   1.403       .  A
C493        H499   1.081       .  S
O494        C495   1.339       .  A
C495        C496   1.382       .  A
C496        H500   1.084       .  S
C501        C506   1.380       .  A
C501        C502   1.405       .  A
C501        O507   1.324       .  A
C502        H513   1.082       .  S
C502        C503   1.406       .  A
C503        C512   1.358       .  A
C503        C504   1.378       .  A
C504        C505   1.406       .  A
C504        O510   1.327       .  A
C505        H514   1.082       .  S
C505        C506   1.410       .  A
C506        C509   1.363       .  A
O507        C508   1.334       .  A
C508        C509   1.403       .  A
C509        H515   1.083       .  S
O510        C511   1.334       .  A
C511        C512   1.399       .  A
C512        H516   1.082       .  S
C517        C522   1.376       .  A
C517        C518   1.403       .  A
C517        O523   1.323       .  A
C518        H529   1.082       .  S
C518        C519   1.407       .  A
C519        C528   1.358       .  A
C519        C520   1.379       .  A
C520        C521   1.404       .  A
C520        O526   1.322       .  A
C521        H530   1.082       .  S
C521        C522   1.405       .  A
C522        C525   1.357       .  A
O523        C524   1.331       .  A
C524        C525   1.402       .  A
C525        H531   1.080       .  S
O526        C527   1.333       .  A
C527        C528   1.401       .  A
C528        H532   1.083       .  S
C533        C538   1.378       .  A
C533        C534   1.370       .  A
C533        O539   1.286       .  A
C534        H545   1.078       .  S
C534        C535   1.372       .  A
C535        C544   1.327       .  A
C535        C536   1.378       .  A
C536        C537   1.422       .  A
C536        O542   1.331       .  A
C537        H546   1.082       .  S
C537        C538   1.421       .  A
C538        C541   1.386       .  A
O539        C540   1.318       .  A
C540        C541   1.405       .  A
C541        H547   1.082       .  S
O542        C543   1.341       .  A
C543        C544   1.382       .  A
C544        H548   1.081       .  S
C549        C554   1.378       .  A
C549        C550   1.404       .  A
C549        O555   1.327       .  A
C550        H561   1.082       .  S
C550        C551   1.408       .  A
C551        C560   1.354       .  A
C551        C552   1.379       .  A
C552        C553   1.406       .  A
C552        O558   1.330       .  A
C553        H562   1.082       .  S
C553        C554   1.411       .  A
C554        C557   1.357       .  A
O555        C556   1.335       .  A
C556        C557   1.405       .  A
C557        H563   1.083       .  S
O558        C559   1.335       .  A
C559        C560   1.404       .  A
C560        H564   1.083       .  S
C565        C570   1.379       .  A
C565        C566   1.402       .  A
C565        O571   1.324       .  A
C566        H577   1.082       .  S
C566        C567   1.405       .  A
C567        C576   1.354       .  A
C567        C568   1.379       .  A
C568        C569   1.407       .  A
C568        O574   1.330       .  A
C569        H578   1.082       .  S
C569        C570   1.412       .  A
C570        C573   1.360       .  A
O571        C572   1.333       .  A
C572        C573   1.406       .  A
C573        H579   1.083       .  S
O574        C575   1.336       .  A
C575        C576   1.400       .  A
C576        H580   1.083       .  S
C581        C586   1.381       .  A
C581        C582   1.399       .  A
C581        O587   1.323       .  A
C582        H593   1.083       .  S
C582        C583   1.403       .  A
C583        C592   1.349       .  A
C583        C584   1.379       .  A
C584        C585   1.406       .  A
C584        O590   1.330       .  A
C585        H594   1.082       .  S
C585        C586   1.411       .  A
C586        C589   1.358       .  A
O587        C588   1.330       .  A
C588        C589   1.404       .  A
C589        H595   1.083       .  S
O590        C591   1.335       .  A
C591        C592   1.401       .  A
C592        H596   1.083       .  S
C597        C602   1.379       .  A
C597        C598   1.406       .  A
C597        O603   1.327       .  A
C598        H609   1.082       .  S
C598        C599   1.408       .  A
C599        C608   1.359       .  A
C599        C600   1.379       .  A
C600        C601   1.405       .  A
C600        O606   1.326       .  A
C601        H610   1.082       .  S
C601        C602   1.408       .  A
C602        C605   1.358       .  A
O603        C604   1.335       .  A
C604        C605   1.403       .  A
C605        H611   1.083       .  S
O606        C607   1.335       .  A
C607        C608   1.402       .  A
C608        H612   1.083       .  S
C613        C618   1.376       .  A
C613        C614   1.427       .  A
C613        O619   1.337       .  A
C614        H625   1.079       .  S
C614        C615   1.425       .  A
C615        C624   1.389       .  A
C615        C616   1.376       .  A
C616        C617   1.361       .  A
C616        O622   1.281       .  A
C617        H626   1.076       .  S
C617        C618   1.364       .  A
C618        C621   1.315       .  A
O619        C620   1.344       .  A
C620        C621   1.382       .  A
C621        H627   1.084       .  S
O622        C623   1.314       .  A
C623        C624   1.409       .  A
C624        H628   1.082       .  S
C629        C634   1.375       .  A
C629        C630   1.413       .  A
C629        O635   1.321       .  A
C630        H641   1.082       .  S
C630        C631   1.411       .  A
C631        C640   1.375       .  A
C631        C632   1.375       .  A
C632        C633   1.398       .  A
C632        O638   1.308       .  A
C633        H642   1.083       .  S
C633        C634   1.398       .  A
C634        C637   1.359       .  A
O635        C636   1.341       .  A
C636        C637   1.401       .  A
C637        H643   1.075       .  S
O638        C639   1.334       .  A
C639        C640   1.402       .  A
C640        H644   1.072       .  S
C645        C650   1.377       .  A
C645        C646   1.408       .  A
C645        O651   1.317       .  A
C646        H657   1.082       .  S
C646        C647   1.405       .  A
C647        C656   1.365       .  A
C647        C648   1.375       .  A
C648        C649   1.400       .  A
C648        O654   1.313       .  A
C649        H658   1.083       .  S
C649        C650   1.400       .  A
C650        C653   1.359       .  A
O651        C652   1.339       .  A
C652        C653   1.399       .  A
C653        H659   1.076       .  S
O654        C655   1.332       .  A
C655        C656   1.398       .  A
C656        H660   1.080       .  S
C661        C666   1.379       .  A
C661        C662   1.385       .  A
C661        O667   1.300       .  A
C662        H673   1.083       .  S
C662        C663   1.384       .  A
C663        C672   1.336       .  A
C663        C664   1.378       .  A
C664        C665   1.421       .  A
C664        O670   1.335       .  A
C665        H674   1.082       .  S
C665        C666   1.421       .  A
C666        C669   1.385       .  A
O667        C668   1.326       .  A
C668        C669   1.404       .  A
C669        H675   1.082       .  S
O670        C671   1.342       .  A
C671        C672   1.392       .  A
C672        H676   1.083       .  S
C677        C682   1.374       .  A
C677        C678   1.419       .  A
C677        O683   1.331       .  A
C678        H689   1.082       .  S
C678        C679   1.419       .  A
C679        C688   1.380       .  A
C679        C680   1.376       .  A
C680        C681   1.381       .  A
C680        O686   1.296       .  A
C681        H690   1.084       .  S
C681        C682   1.381       .  A
C682        C685   1.331       .  A
O683        C684   1.343       .  A
C684        C685   1.391       .  A
C685        H691   1.078       .  S
O686        C687   1.325       .  A
C687        C688   1.409       .  A
C688        H692   1.082       .  S
C693        C698   1.374       .  A
C693        C694   1.402       .  A
C693        O699   1.312       .  A
C694        H705   1.083       .  S
C694        C695   1.402       .  A
C695        C704   1.367       .  A
C695        C696   1.382       .  A
C696        C697   1.410       .  A
C696        O702   1.317       .  A
C697        H706   1.083       .  S
C697        C698   1.405       .  A
C698        C701   1.371       .  A
O699        C700   1.335       .  A
C700        C701   1.401       .  A
C701        H707   1.071       .  S
O702        C703   1.335       .  A
C703        C704   1.397       .  A
C704        H708   1.077       .  S
C709        C714   1.376       .  A
C709        C710   1.405       .  A
C709        O715   1.322       .  A
C710        H721   1.082       .  S
C710        C711   1.407       .  A
C711        C720   1.362       .  A
C711        C712   1.378       .  A
C712        C713   1.404       .  A
C712        O718   1.319       .  A
C713        H722   1.082       .  S
C713        C714   1.403       .  A
C714        C717   1.359       .  A
O715        C716   1.332       .  A
C716        C717   1.399       .  A
C717        H723   1.081       .  S
O718        C719   1.330       .  A
C719        C720   1.403       .  A
C720        H724   1.083       .  S
C725        C730   1.377       .  A
C725        C726   1.409       .  A
C725        O731   1.318       .  A
C726        H737   1.082       .  S
C726        C727   1.405       .  A
C727        C736   1.368       .  A
C727        C728   1.374       .  A
C728        C729   1.401       .  A
C728        O734   1.313       .  A
C729        H738   1.083       .  S
C729        C730   1.401       .  A
C730        C733   1.361       .  A
O731        C732   1.338       .  A
C732        C733   1.400       .  A
C733        H739   1.075       .  S
O734        C735   1.335       .  A
C735        C736   1.398       .  A
C736        H740   1.078       .  S
C741        C746   1.374       .  A
C741        C742   1.425       .  A
C741        O747   1.339       .  A
C742        H753   1.082       .  S
C742        C743   1.426       .  A
C743        C752   1.386       .  A
C743        C744   1.377       .  A
C744        C745   1.375       .  A
C744        O750   1.294       .  A
C745        H754   1.084       .  S
C745        C746   1.376       .  A
C746        C749   1.323       .  A
O747        C748   1.345       .  A
C748        C749   1.390       .  A
C749        H755   1.082       .  S
O750        C751   1.323       .  A
C751        C752   1.411       .  A
C752        H756   1.082       .  S
C757        C762   1.379       .  A
C757        C758   1.406       .  A
C757        O763   1.324       .  A
C758        H769   1.082       .  S
C758        C759   1.407       .  A
C759        C768   1.361       .  A
C759        C760   1.379       .  A
C760        C761   1.403       .  A
C760        O766   1.320       .  A
C761        H770   1.082       .  S
C761        C762   1.404       .  A
C762        C765   1.359       .  A
O763        C764   1.334       .  A
C764        C765   1.397       .  A
C765        H771   1.082       .  S
O766        C767   1.329       .  A
C767        C768   1.403       .  A
C768        H772   1.083       .  S
C773        C778   1.377       .  A
C773        C774   1.421       .  A
C773        O779   1.335       .  A
C774        H785   1.081       .  S
C774        C775   1.422       .  A
C775        C784   1.383       .  A
C775        C776   1.380       .  A
C776        C777   1.373       .  A
C776        O782   1.291       .  A
C777        H786   1.081       .  S
C777        C778   1.371       .  A
C778        C781   1.320       .  A
O779        C780   1.341       .  A
C780        C781   1.385       .  A
C781        H787   1.084       .  S
O782        C783   1.319       .  A
C783        C784   1.405       .  A
C784        H788   1.082       .  S
C789        C794   1.374       .  A
C789        C790   1.415       .  A
C789        O795   1.320       .  A
C790        H801   1.082       .  S
C790        C791   1.410       .  A
C791        C800   1.378       .  A
C791        C792   1.376       .  A
C792        C793   1.400       .  A
C792        O798   1.310       .  A
C793        H802   1.083       .  S
C793        C794   1.400       .  A
C794        C797   1.363       .  A
O795        C796   1.343       .  A
C796        C797   1.403       .  A
C797        H803   1.071       .  S
O798        C799   1.334       .  A
C799        C800   1.402       .  A
C800        H804   1.080       .  S
C805        C810   1.379       .  A
C805        C806   1.405       .  A
C805        O811   1.327       .  A
C806        H817   1.083       .  S
C806        C807   1.409       .  A
C807        C816   1.360       .  A
C807        C808   1.382       .  A
C808        C809   1.402       .  A
C808        O814   1.324       .  A
C809        H818   1.083       .  S
C809        C810   1.405       .  A
C810        C813   1.356       .  A
O811        C812   1.332       .  A
C812        C813   1.400       .  A
C813        H819   1.083       .  S
O814        C815   1.332       .  A
C815        C816   1.401       .  A
C816        H820   1.083       .  S
C821        C826   1.378       .  A
C821        C822   1.406       .  A
C821        O827   1.327       .  A
C822        H833   1.082       .  S
C822        C823   1.410       .  A
C823        C832   1.361       .  A
C823        C824   1.378       .  A
C824        C825   1.405       .  A
C824        O830   1.325       .  A
C825        H834   1.082       .  S
C825        C826   1.407       .  A
C826        C829   1.358       .  A
O827        C828   1.334       .  A
C828        C829   1.400       .  A
C829        H835   1.082       .  S
O830        C831   1.335       .  A
C831        C832   1.404       .  A
C832        H836   1.083       .  S
C837        C842   1.380       .  A
C837        C838   1.402       .  A
C837        O843   1.324       .  A
C838        H849   1.083       .  S
C838        C839   1.404       .  A
C839        C848   1.355       .  A
C839        C840   1.377       .  A
C840        C841   1.408       .  A
C840        O846   1.330       .  A
C841        H850   1.082       .  S
C841        C842   1.413       .  A
C842        C845   1.362       .  A
O843        C844   1.332       .  A
C844        C845   1.407       .  A
C845        H851   1.083       .  S
O846        C847   1.335       .  A
C847        C848   1.400       .  A
C848        H852   1.083       .  S
C853        C858   1.379       .  A
C853        C854   1.374       .  A
C853        O859   1.292       .  A
C854        H865   1.082       .  S
C854        C855   1.375       .  A
C855        C864   1.325       .  A
C855        C856   1.378       .  A
C856        C857   1.421       .  A
C856        O862   1.335       .  A
C857        H866   1.082       .  S
C857        C858   1.421       .  A
C858        C861   1.383       .  A
O859        C860   1.320       .  A
C860        C861   1.405       .  A
C861        H867   1.082       .  S
O862        C863   1.341       .  A
C863        C864   1.384       .  A
C864        H868   1.081       .  S
C869        C874   1.376       .  A
C869        C870   1.422       .  A
C869        O875   1.331       .  A
C870        H881   1.082       .  S
C870        C871   1.421       .  A
C871        C880   1.383       .  A
C871        C872   1.378       .  A
C872        C873   1.365       .  A
C872        O878   1.284       .  A
C873        H882   1.078       .  S
C873        C874   1.367       .  A
C874        C877   1.318       .  A
O875        C876   1.342       .  A
C876        C877   1.384       .  A
C877        H883   1.083       .  S
O878        C879   1.315       .  A
C879        C880   1.407       .  A
C880        H884   1.082       .  S
C885        C890   1.378       .  A
C885        C886   1.404       .  A
C885        O891   1.324       .  A
C886        H897   1.082       .  S
C886        C887   1.407       .  A
C887        C896   1.356       .  A
C887        C888   1.378       .  A
C888        C889   1.401       .  A
C888        O894   1.323       .  A
C889        H898   1.082       .  S
C889        C890   1.405       .  A
C890        C893   1.352       .  A
O891        C892   1.334       .  A
C892        C893   1.404       .  A
C893        H899   1.083       .  S
O894        C895   1.331       .  A
C895        C896   1.401       .  A
C896        H900   1.082       .  S
C901        C906   1.377       .  A
C901        C902   1.409       .  A
C901        O907   1.316       .  A
C902        H913   1.082       .  S
C902        C903   1.405       .  A
C903        C912   1.374       .  A
C903        C904   1.377       .  A
C904        C905   1.408       .  A
C904        O910   1.315       .  A
C905        H914   1.082       .  S
C905        C906   1.405       .  A
C906        C909   1.372       .  A
O907        C908   1.338       .  A
C908        C909   1.401       .  A
C909        H915   1.078       .  S
O910        C911   1.337       .  A
C911        C912   1.400       .  A
C912        H916   1.079       .  S
C917        C922   1.375       .  A
C917        C918   1.424       .  A
C917        O923   1.334       .  A
C918        H929   1.082       .  S
C918        C919   1.422       .  A
C919        C928   1.388       .  A
C919        C920   1.377       .  A
C920        C921   1.378       .  A
C920        O926   1.295       .  A
C921        H930   1.079       .  S
C921        C922   1.380       .  A
C922        C925   1.333       .  A
O923        C924   1.345       .  A
C924        C925   1.392       .  A
C925        H931   1.081       .  S
O926        C927   1.323       .  A
C927        C928   1.405       .  A
C928        H932   1.082       .  S
C933        C938   1.376       .  A
C933        C934   1.411       .  A
C933        O939   1.318       .  A
C934        H945   1.082       .  S
C934        C935   1.407       .  A
C935        C944   1.374       .  A
C935        C936   1.375       .  A
C936        C937   1.403       .  A
C936        O942   1.313       .  A
C937        H946   1.083       .  S
C937        C938   1.402       .  A
C938        C941   1.367       .  A
O939        C940   1.339       .  A
C940        C941   1.401       .  A
C941        H947   1.073       .  S
O942        C943   1.337       .  A
C943        C944   1.399       .  A
C944        H948   1.077       .  S
C949        C954   1.376       .  A
C949        C950   1.405       .  A
C949        O955   1.315       .  A
C950        H961   1.082       .  S
C950        C951   1.403       .  A
C951        C960   1.366       .  A
C951        C952   1.373       .  A
C952        C953   1.411       .  A
C952        O958   1.322       .  A
C953        H962   1.082       .  S
C953        C954   1.410       .  A
C954        C957   1.372       .  A
O955        C956   1.337       .  A
C956        C957   1.404       .  A
C957        H963   1.079       .  S
O958        C959   1.341       .  A
C959        C960   1.403       .  A
C960        H964   1.073       .  S
C965        C970   1.377       .  A
C965        C966   1.420       .  A
C965        O971   1.334       .  A
C966        H977   1.081       .  S
C966        C967   1.420       .  A
C967        C976   1.380       .  A
C967        C968   1.377       .  A
C968        C969   1.374       .  A
C968        O974   1.291       .  A
C969        H978   1.081       .  S
C969        C970   1.375       .  A
C970        C973   1.325       .  A
O971        C972   1.340       .  A
C972        C973   1.385       .  A
C973        H979   1.083       .  S
O974        C975   1.322       .  A
C975        C976   1.409       .  A
C976        H980   1.081       .  S
C981        C986   1.377       .  A
C981        C982   1.412       .  A
C981        O987   1.320       .  A
C982        H993   1.082       .  S
C982        C983   1.408       .  A
C983        C992   1.373       .  A
C983        C984   1.375       .  A
C984        C985   1.399       .  A
C984        O990   1.311       .  A
C985        H994   1.083       .  S
C985        C986   1.399       .  A
C986        C989   1.362       .  A
O987        C988   1.341       .  A
C988        C989   1.401       .  A
C989        H995   1.076       .  S
O990        C991   1.334       .  A
C991        C992   1.400       .  A
C992        H996   1.078       .  S
C997       C1002   1.378       .  A
C997        C998   1.403       .  A
C997       O1003   1.321       .  A
C998       H1009   1.083       .  S
C998        C999   1.404       .  A
C999       C1008   1.358       .  A
C999       C1000   1.380       .  A
C1000      C1001   1.400       .  A
C1000      O1006   1.319       .  A
C1001      H1010   1.083       .  S
C1001      C1002   1.402       .  A
C1002      C1005   1.354       .  A
O1003      C1004   1.330       .  A
C1004      C1005   1.399       .  A
C1005      H1011   1.079       .  S
O1006      C1007   1.329       .  A
C1007      C1008   1.398       .  A
C1008      H1012   1.083       .  S
