geometry optimzed in LAMMPS
_audit_creation_date              2020-11-30 
_audit_creation_method            'lammps2cif' 
_symmetry_space_group_name_H-M    'P1' 
_symmetry_Int_Tables_number       1 
_symmetry_cell_setting            triclinic 
loop_ 
_symmetry_equiv_pos_as_xyz 
  x,y,z 
_cell_length_a                    27.25235737 
_cell_length_b                    27.26320626336357 
_cell_length_c                    47.01276709925301 
_cell_angle_alpha                 89.90604098331036 
_cell_angle_beta                  89.94092403474842 
_cell_angle_gamma                 89.90964116891843 
loop_ 
_atom_site_label 
_atom_site_type_symbol 
_atom_site_fract_x 
_atom_site_fract_y 
_atom_site_fract_z 
_atom_site_charge 
In1        In  0.89852112  0.08788970  0.91272817     1.36900
C2          C  0.91861701  0.17074095  0.88579523     0.77400
O3          O  0.97909943  0.07156732  0.91425194    -0.61000
O4          O  0.93019644  0.01155697  0.91020712    -0.51900
C5          C  0.88228918  0.08799024  0.96835338     0.70100
O6          O  0.91173686  0.11735232  0.95656919    -0.46800
C7          C  0.81831406  0.06645847  0.88377058     0.74800
O8          O  0.89823121  0.17021417  0.90984596    -0.58600
O9          O  0.85969869  0.04891809  0.87753500    -0.48700
O10         O  0.92932160  0.12934071  0.87577131    -0.55100
C11         C  0.97405492  0.02585705  0.91204117     0.85000
O12         O  0.86053924  0.05933659  0.95161925    -0.57000
O13         O  0.81761732  0.09482306  0.90487770    -0.60300
In14       In  0.89759894  0.08755803  0.10408374     1.36900
C15         C  0.81422601  0.06829009  0.13139274     0.77400
O16         O  0.91143649  0.00673812  0.09854807    -0.61000
O17         O  0.97173820  0.05254564  0.10875842    -0.51900
C18         C  0.89925886  0.10423040  0.04833463     0.70100
O19         O  0.86670412  0.07839068  0.06010409    -0.46800
C20         C  0.92402605  0.16574326  0.13390462     0.74800
O21         O  0.81548066  0.09474452  0.10940685    -0.58600
O22         O  0.94084597  0.12356371  0.13890269    -0.48700
O23         O  0.85510034  0.05160068  0.13923176    -0.55100
C24         C  0.95682749  0.00985536  0.10323055     0.85000
O25         O  0.92993060  0.12276374  0.06514887    -0.57000
O26         O  0.89419110  0.16827321  0.11350977    -0.60300
In27       In  0.13486452  0.85397018  0.90987550     1.36900
C28         C  0.11662145  0.77065607  0.88335023     0.77400
O29         O  0.05296239  0.86559786  0.91181035    -0.61000
O30         O  0.09894833  0.92784256  0.90752329    -0.51900
C31         C  0.15228359  0.85657882  0.96540819     0.70100
O32         O  0.12659202  0.82360995  0.95397791    -0.46800
C33         C  0.21396375  0.87760844  0.88026116     0.74800
O34         O  0.13788381  0.77176287  0.90712983    -0.58600
O35         O  0.17259296  0.89640106  0.87533842    -0.48700
O36         O  0.10452722  0.81174018  0.87330173    -0.55100
C37         C  0.05585296  0.91158348  0.90986613     0.85000
O38         O  0.17011894  0.88737022  0.94833211    -0.57000
O39         O  0.21516947  0.84721214  0.90042167    -0.60300
In40       In  0.13312475  0.85268567  0.10137415     1.36900
C41         C  0.21308876  0.87234251  0.13144859     0.77400
O42         O  0.11756173  0.93341612  0.10467694    -0.61000
O43         O  0.05711190  0.88515385  0.10044160    -0.51900
C44         C  0.13786041  0.83741781  0.04543455     0.70100
O45         O  0.16147516  0.87122433  0.05748830    -0.46800
C46         C  0.10649722  0.77246609  0.12916770     0.74800
O47         O  0.21537821  0.85475448  0.10668274    -0.58600
O48         O  0.08208075  0.81166934  0.13019158    -0.48700
O49         O  0.17039793  0.87987816  0.14067957    -0.55100
C50         C  0.07169803  0.92873986  0.10318718     0.85000
O51         O  0.11313391  0.81097097  0.06199205    -0.57000
O52         O  0.14435023  0.77390881  0.11378774    -0.60300
C53         C  0.33122191  0.90836626  0.18136952     0.86300
C54         C  0.37699521  0.92469127  0.16459366    -0.53900
C55         C  0.41510457  0.93772537  0.18175529     0.09300
C56         C  0.40414504  0.93325061  0.21356096     0.20200
C57         C  0.34909159  0.86665019  0.20093005    -0.54600
C58         C  0.38745190  0.88018388  0.21776391     0.09400
C59         C  0.31934562  0.95148930  0.20147328    -0.54100
C60         C  0.35806871  0.96427767  0.21830056     0.09900
H61         H  0.37913106  0.92566968  0.14154388     0.14500
H62         H  0.43552915  0.94387261  0.22734617     0.00200
H63         H  0.33332711  0.83007942  0.20128637     0.14800
H64         H  0.28421130  0.97032820  0.20208354     0.14600
C65         C  0.57607270  0.78943265  0.33690154     0.86300
C66         C  0.61742240  0.80727925  0.31705688    -0.53900
C67         C  0.60349664  0.84555766  0.30014446     0.09300
C68         C  0.55035748  0.86216432  0.30460053     0.20200
C69         C  0.55986290  0.83517252  0.35363304    -0.54600
C70         C  0.54632492  0.87317501  0.33643895     0.09400
C71         C  0.53268733  0.77744962  0.31712343    -0.54100
C72         C  0.51952647  0.81594380  0.30021812     0.09900
H73         H  0.65396742  0.79136339  0.31646663     0.14500
H74         H  0.53927608  0.89340594  0.29075815     0.00200
H75         H  0.55880313  0.83721077  0.37668868     0.14800
H76         H  0.51423612  0.74218164  0.31655426     0.14600
C77         C  0.45243917  0.15123377  0.33779923     0.86300
C78         C  0.41092319  0.13408215  0.31788444    -0.53900
C79         C  0.42398156  0.09478659  0.30156140     0.09300
C80         C  0.47643777  0.07673782  0.30655544     0.20200
C81         C  0.46681149  0.10547677  0.35521517    -0.54600
C82         C  0.47927280  0.06651667  0.33849535     0.09400
C83         C  0.49658258  0.16114416  0.31815186    -0.54100
C84         C  0.50893523  0.12171231  0.30186358     0.09900
H85         H  0.37500430  0.15128066  0.31675158     0.14500
H86         H  0.48681486  0.04477830  0.29313237     0.00200
H87         H  0.46702995  0.10399137  0.37829674     0.14800
H88         H  0.51603800  0.19584414  0.31715845     0.14600
C89         C  0.69373074  0.03261417  0.17962358     0.86300
C90         C  0.64720484  0.01693861  0.16343064    -0.53900
C91         C  0.60986734  0.00329619  0.18109798     0.09300
C92         C  0.62227246  0.00655224  0.21274976     0.20200
C93         C  0.67670382  0.07362509  0.19992346    -0.54600
C94         C  0.63915898  0.05938958  0.21728298     0.09400
C95         C  0.70643186  0.98876000  0.19908245    -0.54100
C96         C  0.66852596  0.97545001  0.21642656     0.09900
H97         H  0.64406121  0.01669501  0.14041843     0.14500
H98         H  0.59153791  0.99539760  0.22694192     0.00200
H99         H  0.69257314  0.11013582  0.20047198     0.14800
H100        H  0.74171828  0.97017762  0.19913613     0.14600
C101        C  0.83712203  0.53328119  0.68235015     0.86300
C102        C  0.88045200  0.52154056  0.66235346    -0.53900
C103        C  0.92353471  0.51455734  0.67650464     0.09300
C104        C  0.91924108  0.51966311  0.70877904     0.20200
C105        C  0.83552097  0.49008530  0.70359333    -0.54600
C106        C  0.87924204  0.48280949  0.71726711     0.09400
C107        C  0.85325717  0.57764580  0.70018863    -0.54100
C108        C  0.89648867  0.57011169  0.71402735     0.09900
H109        H  0.87697269  0.51713061  0.63948812     0.14500
H110        H  0.95451012  0.51416496  0.72023956     0.00200
H111        H  0.80367824  0.46683939  0.70684069     0.14800
H112        H  0.83150184  0.61077008  0.70274440     0.14600
C113        C  0.19106043  0.40565879  0.68251744     0.86300
C114        C  0.14713173  0.41844490  0.66346419    -0.53900
C115        C  0.10433251  0.42327113  0.67813597     0.09300
C116        C  0.10939292  0.41446055  0.71021294     0.20200
C117        C  0.19220066  0.44654507  0.70513615    -0.54600
C118        C  0.14914247  0.45072120  0.71996335     0.09400
C119        C  0.17650232  0.35905450  0.69906684    -0.54100
C120        C  0.13350063  0.36398560  0.71368104     0.09900
H121        H  0.15026918  0.42664124  0.64092175     0.14500
H122        H  0.07390306  0.41813759  0.72169860     0.00200
H123        H  0.22428798  0.46881302  0.70954998     0.14800
H124        H  0.19988965  0.32691509  0.70094030     0.14600
C125        C  0.96184359  0.29170904  0.84121948     0.86300
C126        C  0.97712192  0.33489334  0.86008707    -0.53900
C127        C  0.99693083  0.37272998  0.84509146     0.09300
C128        C  0.00038063  0.36345566  0.81296751     0.20200
C129        C  0.92668318  0.31419274  0.81900098    -0.54600
C130        C  0.94748139  0.35182829  0.80395071     0.09400
C131        C  0.00781188  0.27692299  0.82426344    -0.54100
C132        C  0.02795139  0.31476738  0.80941573     0.09900
H133        H  0.96899008  0.33715053  0.88266948     0.14500
H134        H  0.01712408  0.39446362  0.80102805     0.00200
H135        H  0.88980589  0.30086268  0.81503906     0.14800
H136        H  0.02121414  0.23947216  0.82265894     0.14600
C137        C  0.07054511  0.64977312  0.84017297     0.86300
C138        C  0.04965720  0.60965958  0.85981997    -0.53900
C139        C  0.02819637  0.57224033  0.84526620     0.09300
C140        C  0.02994630  0.57829434  0.81297354     0.20200
C141        C  0.10631506  0.62266314  0.82020397    -0.54600
C142        C  0.08468343  0.58458240  0.80609655     0.09400
C143        C  0.02788733  0.66613146  0.82090347    -0.54100
C144        C  0.00685621  0.62815538  0.80667588     0.09900
H145        H  0.05392749  0.60946672  0.88277916     0.14500
H146        H  0.01211374  0.54787543  0.80114498     0.00200
H147        H  0.14491401  0.63176270  0.81804537     0.14800
H148        H  0.01691227  0.70409933  0.81783714     0.14600
C149        C  0.46044793  0.15874230  0.67891538     0.86300
C150        C  0.47561808  0.11372051  0.66121263    -0.53900
C151        C  0.48920897  0.07475710  0.67764755     0.09300
C152        C  0.48640048  0.08422557  0.70965166     0.20200
C153        C  0.41957382  0.14033069  0.69886283    -0.54600
C154        C  0.43366531  0.10114269  0.71493135     0.09400
C155        C  0.50453847  0.16938209  0.69847529    -0.54100
C156        C  0.51786177  0.12981037  0.71451876     0.09900
H157        H  0.47513506  0.11255814  0.63813723     0.14500
H158        H  0.49744573  0.05216347  0.72286311     0.00200
H159        H  0.38322643  0.15658330  0.70016754     0.14800
H160        H  0.52298707  0.20459812  0.69970612     0.14600
C161        C  0.57798013  0.79516532  0.67614481     0.86300
C162        C  0.56296327  0.84140418  0.65940560    -0.53900
C163        C  0.54965192  0.87936205  0.67664620     0.09300
C164        C  0.55259778  0.86775127  0.70845406     0.20200
C165        C  0.61907028  0.81196291  0.69634431    -0.54600
C166        C  0.60529319  0.85018599  0.71323495     0.09400
C167        C  0.53399247  0.78350598  0.69557988    -0.54100
C168        C  0.52099702  0.82194663  0.71248218     0.09900
H169        H  0.56289862  0.84391907  0.63636305     0.14500
H170        H  0.54171320  0.89893924  0.72234439     0.00200
H171        H  0.65535337  0.79547558  0.69715523     0.14800
H172        H  0.51514653  0.74843411  0.69600929     0.14600
C173        C  0.33496581  0.91282287  0.83273844     0.86300
C174        C  0.38031621  0.92722125  0.85038884    -0.53900
C175        C  0.41970479  0.93934907  0.83391326     0.09300
C176        C  0.41021074  0.93608040  0.80192541     0.20200
C177        C  0.32546754  0.95671880  0.81285417    -0.54600
C178        C  0.36534867  0.96862255  0.79678112     0.09400
C179        C  0.35237355  0.87104143  0.81314440    -0.54100
C180        C  0.39198988  0.88375997  0.79703170     0.09900
H181        H  0.38122958  0.92771628  0.87347372     0.14500
H182        H  0.44251085  0.94613016  0.78865624     0.00200
H183        H  0.29097237  0.97663780  0.81178174     0.14800
H184        H  0.33495513  0.83529601  0.81193684     0.14600
C185        C  0.69825549  0.03095848  0.83580058     0.86300
C186        C  0.65204796  0.01624080  0.85263005    -0.53900
C187        C  0.61366297  0.00408429  0.83545373     0.09300
C188        C  0.62482689  0.00787078  0.80362312     0.20200
C189        C  0.70898325  0.98728804  0.81596530    -0.54600
C190        C  0.67005481  0.97551070  0.79912206     0.09400
C191        C  0.68179732  0.07289517  0.81602041    -0.54100
C192        C  0.64315206  0.06034448  0.79918869     0.09900
H193        H  0.65002302  0.01504318  0.87568998     0.14500
H194        H  0.59327763  0.99797374  0.78978339     0.00200
H195        H  0.74388261  0.96805713  0.81508362     0.14800
H196        H  0.69891905  0.10883424  0.81537274     0.14600
C197        C  0.95914817  0.28609762  0.18218132     0.86300
C198        C  0.97101645  0.33207789  0.16436987    -0.53900
C199        C  0.98197377  0.37196124  0.18062203     0.09300
C200        C  0.98009952  0.36231448  0.21267626     0.20200
C201        C  0.00404902  0.27854045  0.20159326    -0.54600
C202        C  0.01468190  0.31887875  0.21755426     0.09400
C203        C  0.91728679  0.30165109  0.20232307    -0.54100
C204        C  0.92879005  0.34178249  0.21826892     0.09900
H205        H  0.97134305  0.33286842  0.14127952     0.14500
H206        H  0.98916738  0.39500590  0.22578374     0.00200
H207        H  0.02529761  0.24485421  0.20258710     0.14800
H208        H  0.88234223  0.28272906  0.20395596     0.14600
C209        C  0.06915032  0.65182803  0.17666510     0.86300
C210        C  0.05574076  0.60542468  0.15969285    -0.53900
C211        C  0.04479592  0.56641614  0.17676416     0.09300
C212        C  0.04831967  0.57721464  0.20860170     0.20200
C213        C  0.02518575  0.66089222  0.19667668    -0.54600
C214        C  0.01460249  0.62128839  0.21337540     0.09400
C215        C  0.11158948  0.63630081  0.19635701    -0.54100
C216        C  0.10017963  0.59703331  0.21306954     0.09900
H217        H  0.05449492  0.60372801  0.13662923     0.14500
H218        H  0.03938116  0.54518979  0.22234854     0.00200
H219        H  0.00481798  0.69511709  0.19769690     0.14800
H220        H  0.14686955  0.65473827  0.19720292     0.14600
C221        C  0.20229050  0.41898996  0.33537374     0.86300
C222        C  0.15738249  0.43321088  0.35340447    -0.53900
C223        C  0.11752911  0.44489735  0.33731610     0.09300
C224        C  0.12603253  0.44157922  0.30522408     0.20200
C225        C  0.18460517  0.37691309  0.31609128    -0.54600
C226        C  0.14445868  0.38927722  0.30030945     0.09400
C227        C  0.21090111  0.46276123  0.31515831    -0.54100
C228        C  0.17044693  0.47433766  0.29940610     0.09900
H229        H  0.15689293  0.43336406  0.37649698     0.14500
H230        H  0.09321248  0.45123110  0.29230135     0.00200
H231        H  0.20228195  0.34124542  0.31481600     0.14800
H232        H  0.24543795  0.48235107  0.31335444     0.14600
C233        C  0.83746865  0.52721139  0.33867705     0.86300
C234        C  0.88344955  0.51316404  0.35576693    -0.53900
C235        C  0.92165738  0.49940076  0.33887395     0.09300
C236        C  0.91068822  0.50105859  0.30696943     0.20200
C237        C  0.85435818  0.56762275  0.31794603    -0.54600
C238        C  0.89288820  0.55345076  0.30132444     0.09400
C239        C  0.82633346  0.48241601  0.31980399    -0.54100
C240        C  0.86517627  0.46896882  0.30323050     0.09900
H241        H  0.88568429  0.51415266  0.37881445     0.14500
H242        H  0.94219906  0.48987181  0.29336948     0.00200
H243        H  0.83736395  0.60358978  0.31639288     0.14800
H244        H  0.79128066  0.46352143  0.31942140     0.14600
In245      In  0.39565025  0.36113371  0.60553643     1.36900
C246        C  0.41916651  0.27975276  0.63297667     0.77400
O247        O  0.47626998  0.37445043  0.60870364    -0.61000
O248        O  0.42931112  0.43637959  0.60528789    -0.51900
C249        C  0.38091259  0.35924948  0.54933501     0.70100
O250        O  0.41357894  0.33409653  0.56145394    -0.46800
C251        C  0.31617926  0.38340942  0.63561333     0.74800
O252        O  0.39913966  0.27896279  0.60879943    -0.58600
O253        O  0.35439295  0.40933127  0.63625287    -0.48700
O254        O  0.42663194  0.32176424  0.64313837    -0.55100
C255        C  0.47262086  0.42034413  0.60739461     0.85000
O256        O  0.35488641  0.38434423  0.56598971    -0.57000
O257        O  0.31812262  0.34690151  0.61927107    -0.60300
In258      In  0.40068949  0.35595940  0.41309158     1.36900
C259        C  0.32207720  0.38140555  0.38349266     0.77400
O260        O  0.41548542  0.43664098  0.41524473    -0.61000
O261        O  0.47587341  0.38852163  0.40892835    -0.51900
C262        C  0.40082881  0.34141477  0.46928557     0.70100
O263        O  0.36927860  0.36774763  0.45695444    -0.46800
C264        C  0.42018270  0.27382803  0.38495693     0.74800
O265        O  0.31893150  0.36014479  0.40727091    -0.58600
O266        O  0.44504753  0.31234462  0.38176468    -0.48700
O267        O  0.36503634  0.38979413  0.37497288    -0.55100
C268        C  0.46105244  0.43210220  0.41177852     0.85000
O269        O  0.43118230  0.32125665  0.45282665    -0.57000
O270        O  0.38581595  0.27682122  0.40281168    -0.60300
In271      In  0.63568033  0.58858823  0.60550352     1.36900
C272        C  0.61494138  0.67277622  0.63070023     0.77400
O273        O  0.55434949  0.57758550  0.60385481    -0.61000
O274        O  0.59992551  0.51480389  0.60828942    -0.51900
C275        C  0.65357520  0.58465040  0.54989612     0.70100
O276        O  0.62196882  0.61266983  0.56077394    -0.46800
C277        C  0.71288366  0.56425256  0.63661318     0.74800
O278        O  0.63709306  0.67101405  0.60717305    -0.58600
O279        O  0.67185631  0.54360920  0.63957079    -0.48700
O280        O  0.60372764  0.63189465  0.64129494    -0.55100
C281        C  0.55695942  0.53169826  0.60609818     0.85000
O282        O  0.67745015  0.55945147  0.56757392    -0.57000
O283        O  0.71463518  0.59709564  0.61774241    -0.60300
In284      In  0.63590627  0.58812749  0.41360316     1.36900
C285        C  0.71747865  0.56575051  0.38609350     0.77400
O286        O  0.62141146  0.50736826  0.41344557    -0.61000
O287        O  0.56064720  0.55591698  0.40985219    -0.51900
C288        C  0.63454744  0.59905301  0.46982087     0.70100
O289        O  0.66702300  0.57410008  0.45736677    -0.46800
C290        C  0.61324275  0.66944943  0.38520124     0.74800
O291        O  0.71786260  0.59102347  0.40852977    -0.58600
O292        O  0.59201248  0.62919016  0.38093094    -0.48700
O293        O  0.67579598  0.55210743  0.37781241    -0.55100
C294        C  0.57564241  0.51217121  0.41114175     0.85000
O295        O  0.60395755  0.61918914  0.45354756    -0.57000
O296        O  0.64591063  0.66858053  0.40412167    -0.60300
C297        C  0.66113166  0.58079987  0.51895980    -0.16600
C298        C  0.63115506  0.60428414  0.50085123    -0.31800
H299        H  0.69016461  0.55709944  0.51101532     0.12400
H300        H  0.60166755  0.62713306  0.50904604     0.13000
C301        C  0.49388698  0.47474408  0.41128761    -0.16600
C302        C  0.54274709  0.46961734  0.41031109    -0.31800
H303        H  0.47750332  0.51107319  0.41249719     0.12400
H304        H  0.55915889  0.43326392  0.40975151     0.13000
C305        C  0.51294075  0.50074705  0.60598116    -0.16600
C306        C  0.51612395  0.45191099  0.60813874    -0.31800
H307        H  0.47734558  0.51844768  0.60380959     0.12400
H308        H  0.55178696  0.43431358  0.61020459     0.13000
C309        C  0.37420441  0.36067126  0.51820217    -0.16600
C310        C  0.40357155  0.33555101  0.50044718    -0.31800
H311        H  0.34595760  0.38471422  0.50968511     0.12400
H312        H  0.43219386  0.31196056  0.50898264     0.13000
C313        C  0.79612384  0.54191208  0.35662551    -0.13400
C314        C  0.76112787  0.55334962  0.37077251    -0.15000
C315        C  0.24511276  0.40604543  0.35264867    -0.13400
C316        C  0.27992954  0.39490035  0.36704680    -0.15000
C317        C  0.03252940  0.42167773  0.34888873    -0.13500
C318        C  0.06911549  0.45769894  0.34859379     0.08700
C319        C  0.05620839  0.50724674  0.35107923    -0.13500
C320        C  0.00681603  0.52091949  0.35142744    -0.13500
C321        C  0.97026640  0.48507018  0.34920243     0.08700
C322        C  0.98318296  0.43533423  0.34914803    -0.13500
H323        H  0.04207180  0.38336780  0.34626122     0.12600
H324        H  0.08414584  0.53543254  0.35004606     0.12600
H325        H  0.99725171  0.55946157  0.35069053     0.12600
H326        H  0.95531901  0.40742525  0.34679035     0.12600
C327        C  0.93189602  0.59471000  0.22874754    -0.13500
C328        C  0.97574933  0.61912246  0.23505588     0.08700
C329        C  0.98771616  0.62879243  0.26349650    -0.13500
C330        C  0.95794775  0.61105491  0.28546639    -0.13500
C331        C  0.91573560  0.58392187  0.27913254     0.08700
C332        C  0.90195795  0.57729725  0.25068835    -0.13500
H333        H  0.92269561  0.58596856  0.20693675     0.12600
H334        H  0.02198917  0.64658237  0.26871395     0.12600
H335        H  0.96968504  0.61542086  0.30732757     0.12600
H336        H  0.86992319  0.55574374  0.24547695     0.12600
C337        C  0.15883567  0.53231508  0.22764328    -0.13500
C338        C  0.13270889  0.57498825  0.23448449     0.08700
C339        C  0.12744858  0.58863212  0.26306097    -0.13500
C340        C  0.14462960  0.55780614  0.28467408    -0.13500
C341        C  0.16785813  0.51345311  0.27785206     0.08700
C342        C  0.17669761  0.50187412  0.24925470    -0.13500
H343        H  0.16206623  0.52067604  0.20570679     0.12600
H344        H  0.10650203  0.62098469  0.26866734     0.12600
H345        H  0.13644071  0.56665225  0.30662029     0.12600
H346        H  0.19394994  0.46748008  0.24365187     0.12600
C347        C  0.09770591  0.34829996  0.22975372    -0.13500
C348        C  0.05550430  0.32257345  0.23781624     0.08700
C349        C  0.04768213  0.31141445  0.26659419    -0.13500
C350        C  0.08015936  0.32885481  0.28728309    -0.13500
C351        C  0.12057371  0.35750784  0.27926092     0.08700
C352        C  0.13009704  0.36562364  0.25036342    -0.13500
H353        H  0.10380233  0.35790272  0.20769557     0.12600
H354        H  0.01456954  0.29264343  0.27318340     0.12600
H355        H  0.07167639  0.32331370  0.30955316     0.12600
H356        H  0.16062339  0.38830244  0.24388402     0.12600
C357        C  0.87125838  0.40736969  0.23258681    -0.13500
C358        C  0.89683636  0.36448394  0.23971554     0.08700
C359        C  0.90304984  0.35189784  0.26841601    -0.13500
C360        C  0.88728460  0.38393541  0.28976220    -0.13500
C361        C  0.86506176  0.42864127  0.28253060     0.08700
C362        C  0.85524824  0.43922568  0.25392243    -0.13500
H363        H  0.86744691  0.41822840  0.21052112     0.12600
H364        H  0.92397483  0.31959658  0.27421758     0.12600
H365        H  0.89610301  0.37580051  0.31170797     0.12600
H366        H  0.83899074  0.47399699  0.24800410     0.12600
C367        C  0.96264112  0.45840284  0.16833034    -0.13500
C368        C  0.99696027  0.42013092  0.16948522     0.08700
C369        C  0.04708484  0.43077186  0.16696923    -0.13500
C370        C  0.06299131  0.47946950  0.16593488    -0.13500
C371        C  0.02881427  0.51787058  0.16691806     0.08700
C372        C  0.97852713  0.50708370  0.16681254    -0.13500
H373        H  0.92388170  0.45084385  0.17086451     0.12600
H374        H  0.07398529  0.40165329  0.16815975     0.12600
H375        H  0.10196012  0.48719835  0.16679329     0.12600
H376        H  0.95175921  0.53635121  0.16814609     0.12600
C377        C  0.55520421  0.93667575  0.84433682    -0.13500
C378        C  0.56551715  0.98696237  0.84535126     0.08700
C379        C  0.52696640  0.02068736  0.84823059    -0.13500
C380        C  0.47831254  0.00441025  0.84792672    -0.13500
C381        C  0.46800511  0.95437426  0.84463210     0.08700
C382        C  0.50664147  0.92044448  0.84395378    -0.13500
H383        H  0.58455701  0.91034490  0.84139415     0.12600
H384        H  0.53437004  0.05969063  0.84824354     0.12600
H385        H  0.44886619  0.03110216  0.84780755     0.12600
H386        H  0.49926433  0.88190223  0.84075547     0.12600
C387        C  0.59222047  0.75381129  0.65811392    -0.13400
C388        C  0.60320043  0.71786981  0.64469537    -0.15000
C389        C  0.63546037  0.85892736  0.76271920    -0.13500
C390        C  0.63691092  0.87425852  0.73425230     0.08700
C391        C  0.65828071  0.91939308  0.72730855    -0.13500
C392        C  0.67479730  0.95052064  0.74878442    -0.13500
C393        C  0.66990414  0.93689402  0.77738207     0.08700
C394        C  0.65193428  0.89019259  0.78425025    -0.13500
H395        H  0.61787461  0.82469025  0.76841687     0.12600
H396        H  0.65864633  0.93212562  0.70550094     0.12600
H397        H  0.68769316  0.98680103  0.74320280     0.12600
H398        H  0.64681196  0.87967538  0.80627191     0.12600
C399        C  0.49142134  0.81195790  0.76191258    -0.13500
C400        C  0.48080127  0.82141548  0.73326442     0.08700
C401        C  0.43577590  0.84273210  0.72588917    -0.13500
C402        C  0.40338278  0.85819982  0.74710094    -0.13500
C403        C  0.41575442  0.85223470  0.77581936     0.08700
C404        C  0.45891922  0.82725685  0.78313826    -0.13500
H405        H  0.52663264  0.79665468  0.76792009     0.12600
H406        H  0.42760432  0.85116684  0.70387132     0.12600
H407        H  0.37082270  0.87855739  0.74117970     0.12600
H408        H  0.46943401  0.82343128  0.80523387     0.12600
C409        C  0.43293245  0.23614854  0.64799827    -0.13400
C410        C  0.44541496  0.20084143  0.66161019    -0.15000
C411        C  0.57591755  0.11672782  0.78570239    -0.13500
C412        C  0.61969001  0.09295091  0.77834336     0.08700
C413        C  0.63406064  0.09075947  0.74973668    -0.13500
C414        C  0.60281734  0.10844079  0.72847468    -0.13500
C415        C  0.55734521  0.12900904  0.73575411     0.08700
C416        C  0.54506558  0.13505250  0.76448595    -0.13500
H417        H  0.56387354  0.11769489  0.80765763     0.12600
H418        H  0.66743376  0.07185845  0.74374184     0.12600
H419        H  0.61219594  0.10231418  0.70637542     0.12600
H420        H  0.50973136  0.15007064  0.77039488     0.12600
C421        C  0.37577614  0.03442741  0.72733763    -0.13500
C422        C  0.40241409  0.07587338  0.73572768     0.08700
C423        C  0.40854286  0.08587898  0.76471177    -0.13500
C424        C  0.39125629  0.05291873  0.78510907    -0.13500
C425        C  0.36774626  0.00970149  0.77667181     0.08700
C426        C  0.35851357  0.00135623  0.74776729    -0.13500
H427        H  0.37163336  0.02578270  0.70499608     0.12600
H428        H  0.42967182  0.11730883  0.77147244     0.12600
H429        H  0.39954943  0.05924227  0.80732122     0.12600
H430        H  0.34151363  0.96750694  0.74094543     0.12600
C431        C  0.48390308  0.93969711  0.66688673    -0.13500
C432        C  0.53398027  0.92806593  0.66677672     0.08700
C433        C  0.56875107  0.96570954  0.66449845    -0.13500
C434        C  0.55364281  0.01474790  0.66467214    -0.13500
C435        C  0.50367971  0.02634534  0.66691473     0.08700
C436        C  0.46879562  0.98865714  0.66686014    -0.13500
H437        H  0.45669787  0.91105225  0.66925871     0.12600
H438        H  0.60752885  0.95728221  0.66502306     0.12600
H439        H  0.58101902  0.04346881  0.66554177     0.12600
H440        H  0.43022385  0.99708043  0.66928000     0.12600
C441        C  0.96092302  0.45490335  0.85103811    -0.13500
C442        C  0.00024249  0.42290553  0.85620103     0.08700
C443        C  0.04548812  0.44175273  0.86500663    -0.13500
C444        C  0.05262577  0.49253595  0.86597800    -0.13500
C445        C  0.01487325  0.52444554  0.85747101     0.08700
C446        C  0.96829685  0.50547768  0.85146859    -0.13500
H447        H  0.92600325  0.44075512  0.84373792     0.12600
H448        H  0.07638490  0.41743162  0.86845202     0.12600
H449        H  0.08919255  0.50655823  0.86983063     0.12600
H450        H  0.93918394  0.52950490  0.84417875     0.12600
C451        C  0.23703497  0.40041025  0.66651754    -0.13400
C452        C  0.27361699  0.39403464  0.65254035    -0.15000
C453        C  0.15740983  0.53320886  0.74400776    -0.13500
C454        C  0.14081969  0.48437304  0.74424448     0.08700
C455        C  0.11190941  0.46816135  0.76707247    -0.13500
C456        C  0.09713423  0.50038064  0.78819631    -0.13500
C457        C  0.11009556  0.54999675  0.78687382     0.08700
C458        C  0.14191488  0.56604321  0.76523627    -0.13500
H459        H  0.17972942  0.54663860  0.72658414     0.12600
H460        H  0.09891188  0.43089829  0.76820135     0.12600
H461        H  0.07355116  0.48671171  0.80497395     0.12600
H462        H  0.15226082  0.60427833  0.76379680     0.12600
C463        C  0.04809411  0.29276742  0.75965384    -0.13500
C464        C  0.06431840  0.30851445  0.78645142     0.08700
C465        C  0.11053977  0.33045251  0.78888957    -0.13500
C466        C  0.13794882  0.34102735  0.76445887    -0.13500
C467        C  0.11821631  0.33194820  0.73739308     0.08700
C468        C  0.07441297  0.30541415  0.73514335    -0.13500
H469        H  0.01207072  0.27643111  0.75739293     0.12600
H470        H  0.12321975  0.34355952  0.80932921     0.12600
H471        H  0.17125784  0.36242899  0.76657319     0.12600
H472        H  0.05814310  0.29898292  0.71448347     0.12600
C473        C  0.79105247  0.54187043  0.66705293    -0.13400
C474        C  0.75475367  0.55133553  0.65348580    -0.15000
C475        C  0.96175905  0.62481794  0.73236024    -0.13500
C476        C  0.91615543  0.60216034  0.73637614     0.08700
C477        C  0.89635995  0.59875644  0.76384535    -0.13500
C478        C  0.92392229  0.61368971  0.78732569    -0.13500
C479        C  0.97114079  0.63286938  0.78346209     0.08700
C480        C  0.98892495  0.64062366  0.75581420    -0.13500
H481        H  0.97812433  0.62631837  0.71137094     0.12600
H482        H  0.86190750  0.57982866  0.76733968     0.12600
H483        H  0.91047905  0.60583906  0.80852757     0.12600
H484        H  0.02604920  0.65370440  0.75254311     0.12600
C485        C  0.93538409  0.41795998  0.73431824    -0.13500
C486        C  0.89029539  0.44216666  0.73716843     0.08700
C487        C  0.86042613  0.43166546  0.76081328    -0.13500
C488        C  0.87732596  0.39959896  0.78217328    -0.13500
C489        C  0.92414528  0.37815744  0.77994951     0.08700
C490        C  0.95219055  0.38667474  0.75547378    -0.13500
H491        H  0.95900043  0.42505583  0.71628459     0.12600
H492        H  0.82571420  0.45038583  0.76356324     0.12600
H493        H  0.85529768  0.39392875  0.80109578     0.12600
H494        H  0.98826004  0.37083618  0.75316423     0.12600
C495        C  0.01217564  0.52263265  0.66744217    -0.13500
C496        C  0.96916785  0.49520041  0.66405802     0.08700
C497        C  0.97262521  0.44464900  0.65867859    -0.13500
C498        C  0.01816445  0.42092213  0.66041412    -0.13500
C499        C  0.06052878  0.44791732  0.66661520     0.08700
C500        C  0.05767102  0.49914379  0.66857124    -0.13500
H501        H  0.01006783  0.56142011  0.67232210     0.12600
H502        H  0.93966798  0.42272345  0.65687231     0.12600
H503        H  0.01968226  0.38124362  0.65947645     0.12600
H504        H  0.08993166  0.52032690  0.67393539     0.12600
C505        C  0.43934686  0.19381183  0.35532779    -0.13400
C506        C  0.43014541  0.22988248  0.36917742    -0.15000
C507        C  0.53830090  0.12948225  0.25225599    -0.13500
C508        C  0.54903133  0.12080401  0.28096042     0.08700
C509        C  0.59433094  0.10013520  0.28846544    -0.13500
C510        C  0.62716135  0.08514090  0.26730372    -0.13500
C511        C  0.61475962  0.09049621  0.23852228     0.08700
C512        C  0.57099346  0.11428561  0.23111793    -0.13500
H513        H  0.50310646  0.14452119  0.24616464     0.12600
H514        H  0.60256683  0.09212275  0.31054171     0.12600
H515        H  0.66023397  0.06577641  0.27332567     0.12600
H516        H  0.56032222  0.11748108  0.20899351     0.12600
C517        C  0.59037243  0.74806379  0.35511298    -0.13400
C518        C  0.60123707  0.71288111  0.36936533    -0.15000
C519        C  0.65906047  0.91386823  0.28702834    -0.13500
C520        C  0.63530192  0.87033822  0.27930643     0.08700
C521        C  0.63208451  0.85752910  0.25050488    -0.13500
C522        C  0.64906132  0.88976447  0.22953441    -0.13500
C523        C  0.66933385  0.93506573  0.23719981     0.08700
C524        C  0.67611202  0.94605696  0.26605434    -0.13500
H525        H  0.66069899  0.92482501  0.30915564     0.12600
H526        H  0.61293963  0.82455208  0.24420152     0.12600
H527        H  0.64241255  0.88130985  0.20737642     0.12600
H528        H  0.69056269  0.98136972  0.27230983     0.12600
C529        C  0.56148488  0.95938570  0.35076582    -0.13500
C530        C  0.52828877  0.92087918  0.34653544     0.08700
C531        C  0.47787388  0.93078362  0.34553760    -0.13500
C532        C  0.46099236  0.97910847  0.34669212    -0.13500
C533        C  0.49441788  0.01793564  0.34874575     0.08700
C534        C  0.54457040  0.00781372  0.35189622    -0.13500
H535        H  0.60058825  0.95233824  0.35081266     0.12600
H536        H  0.45193043  0.90150340  0.34170021     0.12600
H537        H  0.42238547  0.98641244  0.34347456     0.12600
H538        H  0.57091526  0.03749505  0.35255629     0.12600
C539        C  0.43294641  0.83269090  0.28745485    -0.13500
C540        C  0.47938700  0.81541431  0.27940065     0.08700
C541        C  0.49080377  0.81059471  0.25048468    -0.13500
C542        C  0.45760510  0.82659344  0.22984909    -0.13500
C543        C  0.41294532  0.84790366  0.23796748     0.08700
C544        C  0.39989586  0.84918866  0.26679990    -0.13500
H545        H  0.42400596  0.83744789  0.30974295     0.12600
H546        H  0.52684419  0.79822068  0.24397314     0.12600
H547        H  0.46845558  0.82606010  0.20769897     0.12600
H548        H  0.36608960  0.86670775  0.27340459     0.12600
C549        C  0.47382192  0.00445888  0.17066481    -0.13500
C550        C  0.46356365  0.95413509  0.17183690     0.08700
C551        C  0.50226121  0.92028578  0.17083771    -0.13500
C552        C  0.55085502  0.93658823  0.17091851    -0.13500
C553        C  0.56110890  0.98690868  0.17179776     0.08700
C554        C  0.52243318  0.02079256  0.17069083    -0.13500
H555        H  0.44439525  0.03102158  0.17185337     0.12600
H556        H  0.49494188  0.88136862  0.17215225     0.12600
H557        H  0.58027567  0.91002875  0.17240010     0.12600
H558        H  0.52978176  0.05974309  0.17200083     0.12600
C559        C  0.34888901  0.99609170  0.26750944    -0.13500
C560        C  0.35868217  0.00519321  0.23869105     0.08700
C561        C  0.38204146  0.04891442  0.23081985    -0.13500
C562        C  0.39893603  0.08132976  0.25159247    -0.13500
C563        C  0.39231593  0.07055502  0.28048372     0.08700
C564        C  0.36552411  0.02876214  0.28833236    -0.13500
H565        H  0.33219263  0.96182467  0.27399248     0.12600
H566        H  0.39071884  0.05601877  0.20872861     0.12600
H567        H  0.42035940  0.11282088  0.24519529     0.12600
H568        H  0.36103566  0.01938266  0.31056239     0.12600
C569        C  0.25575042  0.88345104  0.14810651    -0.13400
C570        C  0.29009142  0.89422601  0.16299450    -0.15000
C571        C  0.08133895  0.69415217  0.15874330    -0.10200
C572        C  0.09250879  0.72951150  0.14477635    -0.15000
C573        C  0.15964229  0.86037131  0.99633523    -0.16600
C574        C  0.13716003  0.82976330  0.01447030    -0.31800
H575        H  0.18138350  0.89071847  0.00436452     0.12400
H576        H  0.11490865  0.79985326  0.00635068     0.13000
C577        C  0.25663437  0.88974677  0.86398287    -0.13400
C578        C  0.29227712  0.89989394  0.85005969    -0.15000
C579        C  0.10580877  0.72597972  0.86880128    -0.13400
C580        C  0.09248658  0.69044861  0.85583108    -0.15000
C581        C  0.98956842  0.96683527  0.10206769    -0.16600
C582        C  0.03839820  0.97124537  0.10473740    -0.31800
H583        H  0.97326015  0.93102174  0.09844399     0.12400
H584        H  0.05464773  0.00719371  0.10798207     0.13000
C585        C  0.93729484  0.20775894  0.15053485    -0.13400
C586        C  0.94741497  0.24301546  0.16481403    -0.15000
C587        C  0.73448276  0.04720068  0.16095111    -0.13400
C588        C  0.76976155  0.05777659  0.14667100    -0.15000
C589        C  0.01665038  0.99261593  0.91149017    -0.16600
C590        C  0.01223671  0.94362340  0.91043636    -0.31800
H591        H  0.05288239  0.00918522  0.91208496     0.12400
H592        H  0.97612889  0.92672874  0.91037600     0.13000
C593        C  0.87449975  0.08587447  0.99927885    -0.16600
C594        C  0.90267620  0.11127522  0.01737371    -0.31800
H595        H  0.84700508  0.06059631  0.00737173     0.12400
H596        H  0.93110837  0.13549866  0.00928164     0.13000
C597        C  0.77515697  0.05479802  0.86788985    -0.13400
C598        C  0.73991170  0.04417244  0.85381077    -0.15000
C599        C  0.94138302  0.25071161  0.85738157    -0.13400
C600        C  0.92929760  0.21510429  0.87077894    -0.15000
loop_ 
_geom_bond_atom_site_label_1 
_geom_bond_atom_site_label_2 
_geom_bond_distance 
_geom_bond_site_symmetry_2 
_ccdc_geom_bond_type 
In1           O3   2.241       .  S
In1           O4   2.255       .  S
In1          O12   2.239       .  S
In1           O6   2.243       .  S
In1           O8   2.248       .  S
In1           O9   2.236       .  S
In1          O10   2.235       .  S
In1          O13   2.244       .  S
C2            O8   1.259       .  A
C2           O10   1.258       .  A
C2          C600   1.430       .  S
O3           C11   1.258       .  A
O4           C11   1.261       .  A
C5           O12   1.259       .  A
C5            O6   1.262       .  A
C5          C593   1.470       .  S
C7            O9   1.259       .  A
C7           O13   1.259       .  A
C7          C597   1.430       .  S
C11         C589   1.472   1_645  S
In14         O16   2.250       .  S
In14         O17   2.244       .  S
In14         O25   2.245       .  S
In14         O19   2.248       .  S
In14         O21   2.260       .  S
In14         O22   2.246       .  S
In14         O23   2.242       .  S
In14         O26   2.247       .  S
C15          O21   1.260       .  A
C15          O23   1.258       .  A
C15         C588   1.437       .  S
O16          C24   1.260       .  A
O17          C24   1.261       .  A
C18          O25   1.258       .  A
C18          O19   1.261       .  A
C18         C594   1.471       .  S
C20          O22   1.259       .  A
C20          O26   1.260       .  A
C20         C585   1.435       .  S
C24         C581   1.474   1_545  S
In27         O29   2.256       .  S
In27         O30   2.240       .  S
In27         O38   2.243       .  S
In27         O32   2.243       .  S
In27         O34   2.247       .  S
In27         O35   2.242       .  S
In27         O36   2.231       .  S
In27         O39   2.240       .  S
C28          O34   1.260       .  A
C28          O36   1.258       .  A
C28         C579   1.429       .  S
O29          C37   1.259       .  A
O30          C37   1.261       .  A
C31          O38   1.258       .  A
C31          O32   1.261       .  A
C31         C573   1.472       .  S
C33          O35   1.259       .  A
C33          O39   1.258       .  A
C33         C577   1.430       .  S
C37         C590   1.474       .  S
In40         O42   2.246       .  S
In40         O43   2.252       .  S
In40         O51   2.243       .  S
In40         O45   2.259       .  S
In40         O47   2.257       .  S
In40         O48   2.240       .  S
In40         O49   2.238       .  S
In40         O52   2.245       .  S
C41          O47   1.261       .  A
C41          O49   1.258       .  A
C41         C569   1.435       .  S
O42          C50   1.259       .  A
O43          C50   1.260       .  A
C44          O51   1.256       .  A
C44          O45   1.261       .  A
C44         C574   1.471       .  S
C46          O48   1.259       .  A
C46          O52   1.260       .  A
C46         C572   1.433       .  S
C50         C582   1.473       .  S
C53          C54   1.541       .  S
C53          C59   1.543       .  S
C53          C57   1.540       .  S
C53         C570   1.468       .  S
C54          H61   1.085       .  S
C54          C55   1.364       .  D
C55         C550   1.470       .  S
C55          C56   1.529       .  S
C56          C60   1.529       .  S
C56          C58   1.530       .  S
C56          H62   1.113       .  S
C57          H63   1.086       .  S
C57          C58   1.364       .  D
C58         C543   1.468       .  S
C59          H64   1.086       .  S
C59          C60   1.366       .  D
C60         C560   1.472   1_565  S
C65          C66   1.541       .  S
C65          C71   1.541       .  S
C65          C69   1.539       .  S
C65         C517   1.467       .  S
C66          H73   1.086       .  S
C66          C67   1.365       .  D
C67         C520   1.472       .  S
C67          C68   1.531       .  S
C68          C72   1.530       .  S
C68          C70   1.531       .  S
C68          H74   1.113       .  S
C69          H75   1.086       .  S
C69          C70   1.364       .  D
C70         C530   1.469       .  S
C71          H76   1.086       .  S
C71          C72   1.363       .  D
C72         C540   1.469       .  S
C77          C78   1.543       .  S
C77          C83   1.540       .  S
C77          C81   1.541       .  S
C77         C505   1.468       .  S
C78          H85   1.086       .  S
C78          C79   1.365       .  D
C79         C563   1.473       .  S
C79          C80   1.529       .  S
C80          C84   1.529       .  S
C80          C82   1.529       .  S
C80          H86   1.113       .  S
C81          H87   1.086       .  S
C81          C82   1.365       .  D
C82         C533   1.467       .  S
C83          H88   1.086       .  S
C83          C84   1.363       .  D
C84         C508   1.469       .  S
C89          C90   1.541       .  S
C89          C95   1.543   1_545  S
C89          C93   1.542       .  S
C89         C587   1.470       .  S
C90          H97   1.085       .  S
C90          C91   1.365       .  D
C91         C553   1.470   1_545  S
C91          C92   1.529       .  S
C92          C96   1.528   1_545  S
C92          C94   1.528       .  S
C92          H98   1.113   1_545  S
C93          H99   1.086       .  S
C93          C94   1.365       .  D
C94         C511   1.469       .  S
C95         H100   1.086       .  S
C95          C96   1.365       .  D
C96         C523   1.471       .  S
C101        C102   1.542       .  S
C101        C107   1.538       .  S
C101        C105   1.544       .  S
C101        C473   1.466       .  S
C102        H109   1.086       .  S
C102        C103   1.363       .  D
C103        C496   1.471       .  S
C103        C104   1.528       .  S
C104        C108   1.528       .  S
C104        C106   1.536       .  S
C104        H110   1.112       .  S
C105        H111   1.086       .  S
C105        C106   1.368       .  D
C106        C486   1.480       .  S
C107        H112   1.086       .  S
C107        C108   1.362       .  D
C108        C476   1.470       .  S
C113        C114   1.535       .  S
C113        C119   1.541       .  S
C113        C117   1.542       .  S
C113        C451   1.468       .  S
C114        H121   1.086       .  S
C114        C115   1.361       .  D
C115        C499   1.472       .  S
C115        C116   1.533       .  S
C116        C120   1.532       .  S
C116        C118   1.538       .  S
C116        H122   1.112       .  S
C117        H123   1.086       .  S
C117        C118   1.369       .  D
C118        C454   1.483       .  S
C119        H124   1.086       .  S
C119        C120   1.364       .  D
C120        C467   1.475       .  S
C125        C126   1.534       .  S
C125        C131   1.538   1_655  S
C125        C129   1.544       .  S
C125        C599   1.461       .  S
C126        H133   1.086       .  S
C126        C127   1.361       .  D
C127        C442   1.468   1_655  S
C127        C128   1.534   1_655  S
C128        C132   1.534       .  S
C128        C130   1.537   1_455  S
C128        H134   1.112       .  S
C129        H135   1.086       .  S
C129        C130   1.369       .  D
C130        C489   1.480       .  S
C131        H136   1.087       .  S
C131        C132   1.361       .  D
C132        C464   1.475       .  S
C137        C138   1.540       .  S
C137        C143   1.540       .  S
C137        C141   1.541       .  S
C137        C580   1.461       .  S
C138        H145   1.086       .  S
C138        C139   1.362       .  D
C139        C445   1.469       .  S
C139        C140   1.528       .  S
C140        C144   1.526       .  S
C140        C142   1.536       .  S
C140        H146   1.112       .  S
C141        H147   1.086       .  S
C141        C142   1.368       .  D
C142        C457   1.478       .  S
C143        H148   1.086       .  S
C143        C144   1.361       .  D
C144        C479   1.468   1_455  S
C149        C150   1.540       .  S
C149        C155   1.542       .  S
C149        C153   1.540       .  S
C149        C410   1.464       .  S
C150        H157   1.085       .  S
C150        C151   1.364       .  D
C151        C435   1.467       .  S
C151        C152   1.529       .  S
C152        C156   1.529       .  S
C152        C154   1.529       .  S
C152        H158   1.113       .  S
C153        H159   1.086       .  S
C153        C154   1.362       .  D
C154        C422   1.468       .  S
C155        H160   1.086       .  S
C155        C156   1.364       .  D
C156        C415   1.469       .  S
C161        C162   1.540       .  S
C161        C167   1.540       .  S
C161        C165   1.540       .  S
C161        C387   1.463       .  S
C162        H169   1.085       .  S
C162        C163   1.364       .  D
C163        C432   1.469       .  S
C163        C164   1.530       .  S
C164        C168   1.529       .  S
C164        C166   1.530       .  S
C164        H170   1.113       .  S
C165        H171   1.086       .  S
C165        C166   1.363       .  D
C166        C390   1.468       .  S
C167        H172   1.086       .  S
C167        C168   1.362       .  D
C168        C400   1.467       .  S
C173        C174   1.541       .  S
C173        C179   1.540       .  S
C173        C177   1.539       .  S
C173        C578   1.463       .  S
C174        H181   1.086       .  S
C174        C175   1.364       .  D
C175        C381   1.469       .  S
C175        C176   1.529       .  S
C176        C180   1.529       .  S
C176        C178   1.529       .  S
C176        H182   1.113       .  S
C177        H183   1.086       .  S
C177        C178   1.362       .  D
C178        C425   1.466   1_565  S
C179        H184   1.086       .  S
C179        C180   1.363       .  D
C180        C403   1.467       .  S
C185        C186   1.540       .  S
C185        C191   1.539       .  S
C185        C189   1.541   1_545  S
C185        C598   1.463       .  S
C186        H193   1.086       .  S
C186        C187   1.364       .  D
C187        C378   1.468   1_545  S
C187        C188   1.530       .  S
C188        C192   1.530       .  S
C188        C190   1.529   1_545  S
C188        H194   1.113   1_545  S
C189        H195   1.086       .  S
C189        C190   1.364       .  D
C190        C393   1.469       .  S
C191        H196   1.086       .  S
C191        C192   1.362       .  D
C192        C412   1.468       .  S
C197        C198   1.541       .  S
C197        C203   1.541       .  S
C197        C201   1.541   1_655  S
C197        C586   1.467       .  S
C198        H205   1.086       .  S
C198        C199   1.364       .  D
C199        C368   1.471       .  S
C199        C200   1.530       .  S
C200        C204   1.529       .  S
C200        C202   1.529   1_655  S
C200        H206   1.113       .  S
C201        H207   1.086       .  S
C201        C202   1.364       .  D
C202        C348   1.469       .  S
C203        H208   1.086       .  S
C203        C204   1.364       .  D
C204        C358   1.469       .  S
C209        C210   1.541       .  S
C209        C215   1.541       .  S
C209        C213   1.542       .  S
C209        C571   1.466       .  S
C210        H217   1.086       .  S
C210        C211   1.364       .  D
C211        C371   1.470       .  S
C211        C212   1.529       .  S
C212        C216   1.529       .  S
C212        C214   1.528       .  S
C212        H218   1.113       .  S
C213        H219   1.086       .  S
C213        C214   1.365       .  D
C214        C328   1.470   1_455  S
C215        H220   1.086       .  S
C215        C216   1.363       .  D
C216        C338   1.469       .  S
C221        C222   1.538       .  S
C221        C227   1.542       .  S
C221        C225   1.541       .  S
C221        C315   1.465       .  S
C222        H229   1.086       .  S
C222        C223   1.361       .  D
C223        C318   1.463       .  S
C223        C224   1.529       .  S
C224        C228   1.530       .  S
C224        C226   1.529       .  S
C224        H230   1.113       .  S
C225        H231   1.086       .  S
C225        C226   1.364       .  D
C226        C351   1.469       .  S
C227        H232   1.086       .  S
C227        C228   1.365       .  D
C228        C341   1.472       .  S
C233        C234   1.537       .  S
C233        C239   1.541       .  S
C233        C237   1.540       .  S
C233        C313   1.463       .  S
C234        H241   1.086       .  S
C234        C235   1.362       .  D
C235        C321   1.464       .  S
C235        C236   1.530       .  S
C236        C240   1.529       .  S
C236        C238   1.531       .  S
C236        H242   1.113       .  S
C237        H243   1.086       .  S
C237        C238   1.364       .  D
C238        C331   1.471       .  S
C239        H244   1.086       .  S
C239        C240   1.364       .  D
C240        C361   1.469       .  S
In245       O247   2.233       .  S
In245       O248   2.249       .  S
In245       O256   2.256       .  S
In245       O250   2.254       .  S
In245       O252   2.247       .  S
In245       O253   2.253       .  S
In245       O254   2.232       .  S
In245       O257   2.243       .  S
C246        O252   1.262       .  A
C246        O254   1.259       .  A
C246        C409   1.431       .  S
O247        C255   1.256       .  A
O248        C255   1.262       .  A
C249        O256   1.258       .  A
C249        O250   1.259       .  A
C249        C309   1.476       .  S
C251        O253   1.260       .  A
C251        O257   1.259       .  A
C251        C452   1.435       .  S
C255        C306   1.467       .  S
In258       O260   2.239       .  S
In258       O261   2.243       .  S
In258       O269   2.252       .  S
In258       O263   2.255       .  S
In258       O265   2.248       .  S
In258       O266   2.245       .  S
In258       O267   2.236       .  S
In258       O270   2.249       .  S
C259        O265   1.261       .  A
C259        O267   1.258       .  A
C259        C316   1.432       .  S
O260        C268   1.258       .  A
O261        C268   1.262       .  A
C262        O269   1.258       .  A
C262        O263   1.260       .  A
C262        C310   1.475       .  S
C264        O266   1.259       .  A
C264        O270   1.260       .  A
C264        C506   1.436       .  S
C268        C301   1.468       .  S
In271       O273   2.239       .  S
In271       O274   2.240       .  S
In271       O282   2.259       .  S
In271       O276   2.234       .  S
In271       O278   2.249       .  S
In271       O279   2.244       .  S
In271       O280   2.232       .  S
In271       O283   2.240       .  S
C272        O278   1.260       .  A
C272        O280   1.258       .  A
C272        C388   1.431       .  S
O273        C281   1.257       .  A
O274        C281   1.262       .  A
C275        O282   1.259       .  A
C275        O276   1.259       .  A
C275        C297   1.473       .  S
C277        O279   1.260       .  A
C277        O283   1.260       .  A
C277        C474   1.433       .  S
C281        C305   1.468       .  S
In284       O286   2.238       .  S
In284       O287   2.240       .  S
In284       O295   2.236       .  S
In284       O289   2.258       .  S
In284       O291   2.247       .  S
In284       O292   2.244       .  S
In284       O293   2.231       .  S
In284       O296   2.254       .  S
C285        O291   1.261       .  A
C285        O293   1.258       .  A
C285        C314   1.430       .  S
O286        C294   1.259       .  A
O287        C294   1.261       .  A
C288        O295   1.257       .  A
C288        O289   1.260       .  A
C288        C298   1.469       .  S
C290        O292   1.258       .  A
C290        O296   1.259       .  A
C290        C518   1.435       .  S
C294        C302   1.468       .  S
C297        H299   1.087       .  S
C297        C298   1.342       .  D
C298        H300   1.087       .  S
C301        H303   1.087       .  S
C301        C302   1.339       .  D
C302        H304   1.087       .  S
C305        H307   1.088       .  S
C305        C306   1.338       .  D
C306        H308   1.088       .  S
C309        H311   1.087       .  S
C309        C310   1.344       .  D
C310        H312   1.087       .  S
C313        C314   1.203       .  T
C315        C316   1.204       .  T
C317        C318   1.401       .  A
C317        C322   1.395   1_455  A
C317        H323   1.083       .  S
C318        C319   1.400       .  A
C319        C320   1.396       .  A
C319        H324   1.084       .  S
C320        C321   1.401   1_455  A
C320        H325   1.083   1_455  S
C321        C322   1.400       .  A
C322        H326   1.082       .  S
C327        C328   1.401       .  A
C327        C332   1.397       .  A
C327        H333   1.083       .  S
C328        C329   1.402       .  A
C329        C330   1.399       .  A
C329        H334   1.082   1_655  S
C330        C331   1.401       .  A
C330        H335   1.083       .  S
C331        C332   1.401       .  A
C332        H336   1.082       .  S
C337        C338   1.401       .  A
C337        C342   1.398       .  A
C337        H343   1.083       .  S
C338        C339   1.402       .  A
C339        C340   1.398       .  A
C339        H344   1.083       .  S
C340        C341   1.402       .  A
C340        H345   1.083       .  S
C341        C342   1.402       .  A
C342        H346   1.081       .  S
C347        C348   1.400       .  A
C347        C352   1.395       .  A
C347        H353   1.082       .  S
C348        C349   1.402       .  A
C349        C350   1.400       .  A
C349        H354   1.083       .  S
C350        C351   1.402       .  A
C350        H355   1.082       .  S
C351        C352   1.400       .  A
C352        H356   1.081       .  S
C357        C358   1.401       .  A
C357        C362   1.397       .  A
C357        H363   1.083       .  S
C358        C359   1.402       .  A
C359        C360   1.398       .  A
C359        H364   1.083       .  S
C360        C361   1.402       .  A
C360        H365   1.082       .  S
C361        C362   1.401       .  A
C362        H366   1.082       .  S
C367        C368   1.401       .  A
C367        C372   1.398       .  A
C367        H373   1.083       .  S
C368        C369   1.402   1_655  A
C369        C370   1.398       .  A
C369        H374   1.081       .  S
C370        C371   1.401       .  A
C370        H375   1.084       .  S
C371        C372   1.402   1_455  A
C372        H376   1.082       .  S
C377        C378   1.401       .  A
C377        C382   1.396       .  A
C377        H383   1.083       .  S
C378        C379   1.402   1_565  A
C379        C380   1.399       .  A
C379        H384   1.083       .  S
C380        C381   1.402   1_545  A
C380        H385   1.082       .  S
C381        C382   1.401       .  A
C382        H386   1.081       .  S
C387        C388   1.203       .  T
C389        C390   1.402       .  A
C389        C394   1.399       .  A
C389        H395   1.083       .  S
C390        C391   1.400       .  A
C391        C392   1.395       .  A
C391        H396   1.082       .  S
C392        C393   1.401       .  A
C392        H397   1.082       .  S
C393        C394   1.402       .  A
C394        H398   1.083       .  S
C399        C400   1.401       .  A
C399        C404   1.397       .  A
C399        H405   1.083       .  S
C400        C401   1.401       .  A
C401        C402   1.396       .  A
C401        H406   1.083       .  S
C402        C403   1.401       .  A
C402        H407   1.082       .  S
C403        C404   1.401       .  A
C404        H408   1.083       .  S
C409        C410   1.204       .  T
C411        C412   1.400       .  A
C411        C416   1.396       .  A
C411        H417   1.083       .  S
C412        C413   1.402       .  A
C413        C414   1.398       .  A
C413        H418   1.082       .  S
C414        C415   1.402       .  A
C414        H419   1.083       .  S
C415        C416   1.401       .  A
C416        H420   1.082       .  S
C421        C422   1.401       .  A
C421        C426   1.398       .  A
C421        H427   1.083       .  S
C422        C423   1.400       .  A
C423        C424   1.395       .  A
C423        H428   1.082       .  S
C424        C425   1.400       .  A
C424        H429   1.083       .  S
C425        C426   1.401       .  A
C426        H430   1.082   1_545  S
C431        C432   1.401       .  A
C431        C436   1.396       .  A
C431        H437   1.083       .  S
C432        C433   1.402       .  A
C433        C434   1.398   1_565  A
C433        H438   1.081       .  S
C434        C435   1.401       .  A
C434        H439   1.083       .  S
C435        C436   1.401   1_545  A
C436        H440   1.082       .  S
C441        C442   1.402   1_655  A
C441        C446   1.394       .  A
C441        H447   1.084       .  S
C442        C443   1.400       .  A
C443        C444   1.399       .  A
C443        H448   1.083       .  S
C444        C445   1.404       .  A
C444        H449   1.083       .  S
C445        C446   1.401   1_455  A
C446        H450   1.084       .  S
C451        C452   1.206       .  T
C453        C454   1.407       .  A
C453        C458   1.406       .  A
C453        H459   1.083       .  S
C454        C455   1.402       .  A
C455        C456   1.386       .  A
C455        H460   1.078       .  S
C456        C457   1.400       .  A
C456        H461   1.083       .  S
C457        C458   1.406       .  A
C458        H462   1.082       .  S
C463        C464   1.404       .  A
C463        C468   1.400       .  A
C463        H469   1.084       .  S
C464        C465   1.400       .  A
C465        C466   1.399       .  A
C465        H470   1.083       .  S
C466        C467   1.404       .  A
C466        H471   1.085       .  S
C467        C468   1.401       .  A
C468        H472   1.083       .  S
C473        C474   1.205       .  T
C475        C476   1.401       .  A
C475        C480   1.398       .  A
C475        H481   1.083       .  S
C476        C477   1.402       .  A
C477        C478   1.397       .  A
C477        H482   1.084       .  S
C478        C479   1.401       .  A
C478        H483   1.083       .  S
C479        C480   1.403       .  A
C480        H484   1.084   1_655  S
C485        C486   1.400       .  A
C485        C490   1.387       .  A
C485        H491   1.081       .  S
C486        C487   1.406       .  A
C487        C488   1.408       .  A
C487        H492   1.082       .  S
C488        C489   1.406       .  A
C488        H493   1.084       .  S
C489        C490   1.400       .  A
C490        H494   1.078       .  S
C495        C496   1.401   1_455  A
C495        C500   1.396       .  A
C495        H501   1.084       .  S
C496        C497   1.405       .  A
C497        C498   1.401   1_655  A
C497        H502   1.083       .  S
C498        C499   1.401       .  A
C498        H503   1.083       .  S
C499        C500   1.402       .  A
C500        H504   1.083       .  S
C505        C506   1.206       .  T
C507        C508   1.401       .  A
C507        C512   1.397       .  A
C507        H513   1.081       .  S
C508        C509   1.401       .  A
C509        C510   1.398       .  A
C509        H514   1.084       .  S
C510        C511   1.402       .  A
C510        H515   1.082       .  S
C511        C512   1.401       .  A
C512        H516   1.084       .  S
C517        C518   1.206       .  T
C519        C520   1.401       .  A
C519        C524   1.399       .  A
C519        H525   1.084       .  S
C520        C521   1.402       .  A
C521        C522   1.399       .  A
C521        H526   1.082       .  S
C522        C523   1.402       .  A
C522        H527   1.083       .  S
C523        C524   1.402       .  A
C524        H528   1.082       .  S
C529        C530   1.401       .  A
C529        C534   1.399   1_565  A
C529        H535   1.083       .  S
C530        C531   1.401       .  A
C531        C532   1.396       .  A
C531        H536   1.083       .  S
C532        C533   1.401   1_565  A
C532        H537   1.081       .  S
C533        C534   1.402       .  A
C534        H538   1.083       .  S
C539        C540   1.402       .  A
C539        C544   1.398       .  A
C539        H545   1.083       .  S
C540        C541   1.401       .  A
C541        C542   1.396       .  A
C541        H546   1.082       .  S
C542        C543   1.401       .  A
C542        H547   1.082       .  S
C543        C544   1.401       .  A
C544        H548   1.083       .  S
C549        C550   1.402   1_545  A
C549        C554   1.398       .  A
C549        H555   1.081       .  S
C550        C551   1.401       .  A
C551        C552   1.398       .  A
C551        H556   1.082       .  S
C552        C553   1.401       .  A
C552        H557   1.082       .  S
C553        C554   1.401   1_565  A
C554        H558   1.083       .  S
C559        C560   1.402   1_565  A
C559        C564   1.401   1_565  A
C559        H565   1.083       .  S
C560        C561   1.401       .  A
C561        C562   1.397       .  A
C561        H566   1.082       .  S
C562        C563   1.401       .  A
C562        H567   1.081       .  S
C563        C564   1.403       .  A
C564        H568   1.082       .  S
C569        C570   1.206       .  T
C571        C572   1.205       .  T
C573        H575   1.087   1_556  S
C573        C574   1.340   1_556  D
C574        H576   1.087       .  S
C577        C578   1.203       .  T
C579        C580   1.202       .  T
C581        H583   1.087       .  S
C581        C582   1.342   1_655  D
C582        H584   1.087   1_565  S
C585        C586   1.206       .  T
C587        C588   1.207       .  T
C589        H591   1.087   1_565  S
C589        C590   1.342       .  D
C590        H592   1.087   1_455  S
C593        H595   1.087   1_556  S
C593        C594   1.341   1_556  D
C594        H596   1.087       .  S
C597        C598   1.203       .  T
C599        C600   1.203       .  T
