geometry optimzed in LAMMPS
_audit_creation_date              2020-11-30 
_audit_creation_method            'lammps2cif' 
_symmetry_space_group_name_H-M    'P1' 
_symmetry_Int_Tables_number       1 
_symmetry_cell_setting            triclinic 
loop_ 
_symmetry_equiv_pos_as_xyz 
  x,y,z 
_cell_length_a                    29.58304069 
_cell_length_b                    26.087569797986486 
_cell_length_c                    47.6490973945818 
_cell_angle_alpha                 90.00020207408643 
_cell_angle_beta                  89.98680124319979 
_cell_angle_gamma                 90.00141774691477 
loop_ 
_atom_site_label 
_atom_site_type_symbol 
_atom_site_fract_x 
_atom_site_fract_y 
_atom_site_fract_z 
_atom_site_charge 
C1          C  0.62213770  0.48652362  0.28175274     0.80500
N2          N  0.64917382  0.51401637  0.29909749    -0.77800
C3          C  0.69214679  0.49983458  0.30418974     0.82900
N4          N  0.70796691  0.45566753  0.29340348    -0.77800
C5          C  0.68108178  0.42566928  0.27724749     0.83000
N6          N  0.63842270  0.44192533  0.27041440    -0.79500
C7          C  0.62214998  0.48639974  0.45910433     0.80500
N8          N  0.64923520  0.51390515  0.44178900    -0.77800
C9          C  0.69222988  0.49973935  0.43674150     0.82900
N10         N  0.70802719  0.45557760  0.44754349    -0.77800
C11         C  0.68109641  0.42557461  0.46367688     0.83000
N12         N  0.63841114  0.44181406  0.47046312    -0.79500
N13         N  0.72849533  0.54808128  0.37047569    -0.36300
N14         N  0.73823869  0.62573434  0.41342629    -0.56900
N15         N  0.74759911  0.70618772  0.37050394    -0.36300
N16         N  0.73819697  0.62579671  0.32755753    -0.56900
C17         C  0.73062162  0.51745897  0.39296748     0.27200
C18         C  0.73055537  0.51749469  0.34796620     0.27200
C19         C  0.74657693  0.73633784  0.39402745     0.27200
C20         C  0.74661945  0.73636617  0.34699080     0.27200
C21         C  0.72851959  0.58430668  0.42957070     0.35900
C22         C  0.74160996  0.66631725  0.43096730     0.35900
C23         C  0.72841756  0.58440577  0.31140096     0.35900
C24         C  0.74162334  0.66639391  0.31003001     0.35900
C25         C  0.73515180  0.46670410  0.38480206    -0.21600
C26         C  0.73510853  0.46672616  0.35610196    -0.21600
C27         C  0.74594602  0.78706508  0.38517975    -0.21600
C28         C  0.74597484  0.78708294  0.35585659    -0.21600
C29         C  0.72680168  0.59799512  0.45736125    -0.22700
C30         C  0.73573651  0.64919542  0.45834376    -0.22700
C31         C  0.72670886  0.59813226  0.28361615    -0.22700
C32         C  0.73572377  0.64931439  0.28265090    -0.22700
C33         C  0.72109226  0.53379328  0.42001644    -0.18000
C34         C  0.72097317  0.53388231  0.32093589    -0.18000
C35         C  0.74618776  0.71908608  0.31795284    -0.18000
C36         C  0.74610792  0.71902578  0.42305922    -0.18000
H37         H  0.73647025  0.43299004  0.39797901     0.14900
H38         H  0.73639428  0.43302968  0.34291055     0.14900
H39         H  0.74523806  0.82073175  0.39844641     0.14900
H40         H  0.74529002  0.82076581  0.34260216     0.14900
H41         H  0.72063211  0.57334609  0.47506967     0.13200
H42         H  0.73702779  0.67089841  0.47731796     0.13200
H43         H  0.72051626  0.57351625  0.26589757     0.13200
H44         H  0.73706672  0.67103414  0.26368607     0.13200
H45         H  0.71991897  0.58655665  0.37049014     0.26400
H46         H  0.74957064  0.66673723  0.37049704     0.26400
C47         C  0.61324850  0.62075238  0.21751242     0.80500
N48         N  0.63620659  0.58906219  0.20010577    -0.77800
C49         C  0.67864465  0.60003268  0.19168932     0.82900
N50         N  0.69784586  0.64517638  0.19898856    -0.77800
C51         C  0.67513303  0.67846507  0.21572327     0.83000
N52         N  0.63339692  0.66537193  0.22585591    -0.79500
C53         C  0.61310887  0.62060834  0.02341118     0.80500
N54         N  0.63600227  0.58895319  0.04086458    -0.77800
C55         C  0.67839451  0.59996814  0.04934159     0.82900
N56         N  0.69761367  0.64510729  0.04204884    -0.77800
C57         C  0.67496378  0.67836358  0.02527217     0.83000
N58         N  0.63327713  0.66523283  0.01508295    -0.79500
N59         N  0.70990228  0.55586495  0.12049840    -0.36300
N60         N  0.72498874  0.47723137  0.16338439    -0.56900
N61         N  0.74610937  0.39987227  0.12049201    -0.36300
N62         N  0.72478142  0.47716498  0.07761526    -0.56900
C63         C  0.69250251  0.57983075  0.14303169     0.27200
C64         C  0.69237873  0.57978547  0.09799178     0.27200
C65         C  0.74489293  0.36958012  0.14390296     0.27200
C66         C  0.74484241  0.36956371  0.09708874     0.27200
C67         C  0.71890384  0.51928639  0.17973699     0.35900
C68         C  0.73992845  0.43934781  0.18050809     0.35900
C69         C  0.71863522  0.51920480  0.06126316     0.35900
C70         C  0.73973419  0.43929824  0.06048110     0.35900
C71         C  0.66517853  0.62039678  0.13476054    -0.21600
C72         C  0.66509822  0.62036458  0.10629919    -0.21600
C73         C  0.74399865  0.31883969  0.13512924    -0.21600
C74         C  0.74396899  0.31882984  0.10587210    -0.21600
C75         C  0.72964951  0.50829280  0.20717964    -0.22700
C76         C  0.74320139  0.45824140  0.20774541    -0.22700
C77         C  0.72934360  0.50821463  0.03381208    -0.22700
C78         C  0.74294848  0.45818359  0.03323974    -0.22700
C79         C  0.70000755  0.56632513  0.17095441    -0.18000
C80         C  0.69975263  0.56623941  0.07006175    -0.18000
C81         C  0.74578743  0.38681650  0.06821694    -0.18000
C82         C  0.74590241  0.38684908  0.17277205    -0.18000
H83         H  0.64639780  0.64687430  0.14780353     0.14900
H84         H  0.64624601  0.64680900  0.09328128     0.14900
H85         H  0.74355813  0.28517685  0.14839996     0.14900
H86         H  0.74349915  0.28515957  0.09260743     0.14900
H87         H  0.72759510  0.53369967  0.22494920     0.13200
H88         H  0.75373964  0.43856071  0.22646075     0.13200
H89         H  0.72723597  0.53361410  0.01604367     0.13200
H90         H  0.75348912  0.43850767  0.01452071     0.13200
H91         H  0.73271900  0.52564417  0.12048061     0.26400
H92         H  0.74918566  0.43939965  0.12048498     0.26400
C93         C  0.58258215  0.59338491  0.23666906    -0.10600
C94         C  0.60639736  0.56220452  0.25491956    -0.04500
C95         C  0.58830548  0.51776680  0.26654304    -0.10600
C96         C  0.54185624  0.50724348  0.26279239     0.10400
C97         C  0.51550548  0.54106949  0.24581826    -0.02400
C98         C  0.53620431  0.58364201  0.23207387     0.10200
C99         C  0.50993340  0.61549502  0.21479352    -0.12400
C100        C  0.46342091  0.60720148  0.21184109    -0.12400
C101        C  0.44223223  0.56584185  0.22537066     0.10200
C102        C  0.46866658  0.53176887  0.24214498    -0.02400
C103        C  0.52076359  0.46560253  0.27611028    -0.12500
C104        C  0.47430942  0.45718137  0.27305997    -0.12500
C105        C  0.44797125  0.48928351  0.25596041     0.10400
C106        C  0.40142835  0.48006377  0.25182636    -0.10600
C107        C  0.37740257  0.51161347  0.23386585    -0.04500
C108        C  0.39555057  0.55597917  0.22214853    -0.10600
H109        H  0.52512215  0.64788219  0.20413991     0.07600
H110        H  0.44412050  0.63304519  0.19869899     0.07600
H111        H  0.54004257  0.43979103  0.28928334     0.07800
H112        H  0.45914367  0.42473043  0.28367093     0.07800
H113        H  0.64226323  0.56967065  0.25741525     0.04300
H114        H  0.34142841  0.50463953  0.23181376     0.04300
C115        C  0.36151762  0.58793052  0.20749662     0.80500
N116        N  0.34592284  0.63259510  0.21919712    -0.77800
C117        C  0.30326510  0.64951425  0.21277348     0.82900
N118        N  0.27575565  0.62007067  0.19670837    -0.77800
C119        C  0.29083198  0.57582296  0.18565947     0.83000
N120        N  0.33375991  0.56100029  0.19033469    -0.79500
C121        C  0.36129984  0.58802102  0.03299566     0.80500
N122        N  0.34573442  0.63266552  0.02126300    -0.77800
C123        C  0.30305467  0.64958415  0.02763883     0.82900
N124        N  0.27549600  0.62015149  0.04369177    -0.77800
C125        C  0.29054556  0.57591240  0.05476658     0.83000
N126        N  0.33349316  0.56110269  0.05013927    -0.79500
N127        N  0.25354560  0.52732650  0.12022010    -0.36300
N128        N  0.24423161  0.44982335  0.07727081    -0.56900
N129        N  0.23641663  0.36921722  0.12022255    -0.36300
N130        N  0.24449379  0.44974215  0.16316579    -0.56900
C131        C  0.25003244  0.55778705  0.09774131     0.27200
C132        C  0.25019165  0.55774960  0.14272324     0.27200
C133        C  0.23688452  0.33905757  0.09669270     0.27200
C134        C  0.23693931  0.33902903  0.14374263     0.27200
C135        C  0.25420723  0.49126815  0.06120511     0.35900
C136        C  0.24227419  0.40906945  0.05976786     0.35900
C137        C  0.25451750  0.49117221  0.17922500     0.35900
C138        C  0.24248763  0.40899526  0.18067124     0.35900
C139        C  0.24342557  0.60824727  0.10588286    -0.21600
C140        C  0.24352739  0.60822480  0.13462379    -0.21600
C141        C  0.23682198  0.28833125  0.10554512    -0.21600
C142        C  0.23685297  0.28831363  0.13487366    -0.21600
C143        C  0.25734148  0.47746109  0.03348148    -0.22700
C144        C  0.24925889  0.42608028  0.03247990    -0.22700
C145        C  0.25764180  0.47736388  0.20694882    -0.22700
C146        C  0.24950095  0.42599450  0.20795555    -0.22700
C147        C  0.26066932  0.54188481  0.07081143    -0.18000
C148        C  0.26097745  0.54178775  0.16961851    -0.18000
C149        C  0.23777753  0.35631137  0.17278362    -0.18000
C150        C  0.23765337  0.35637124  0.06765631    -0.18000
H151        H  0.24084887  0.64178619  0.09263275     0.14900
H152        H  0.24103142  0.64174713  0.14789234     0.14900
H153        H  0.23707213  0.25465805  0.09227693     0.14900
H154        H  0.23713355  0.25462566  0.14813021     0.14900
H155        H  0.26380505  0.50216287  0.01582033     0.13200
H156        H  0.24920108  0.40414665  0.01358113     0.13200
H157        H  0.26409814  0.50206621  0.22460967     0.13200
H158        H  0.24939636  0.40406385  0.22685516     0.13200
H159        H  0.26400703  0.48941006  0.12019816     0.26400
H160        H  0.23530615  0.40867407  0.12022616     0.26400
C161        C  0.37117851  0.45350746  0.27157026     0.80500
N162        N  0.35016678  0.40909928  0.26382062    -0.77800
C163        C  0.30894743  0.39650445  0.27490108     0.82900
N164        N  0.28752088  0.43015734  0.29212064    -0.77800
C165        C  0.30764585  0.47515960  0.29889935     0.83000
N166        N  0.34957356  0.48563117  0.28938109    -0.79500
C167        C  0.37111509  0.45361572  0.46892354     0.80500
N168        N  0.34953727  0.48574132  0.45110694    -0.77800
C169        C  0.30762548  0.47526737  0.44157408     0.82900
N170        N  0.28749210  0.43026238  0.44834359    -0.77800
C171        C  0.30889426  0.39660588  0.46556540     0.83000
N172        N  0.35009491  0.40920162  0.47666047    -0.79500
N173        N  0.27927817  0.52104362  0.37022950    -0.36300
N174        N  0.26169755  0.59850902  0.41316136    -0.56900
N175        N  0.23846984  0.67508387  0.37019171    -0.36300
N176        N  0.26172491  0.59844242  0.32725780    -0.56900
C177        C  0.29736273  0.49781832  0.39277212     0.27200
C178        C  0.29735578  0.49777331  0.34769368     0.27200
C179        C  0.24024350  0.70538458  0.39360733     0.27200
C180        C  0.24028529  0.70535535  0.34676532     0.27200
C181        C  0.26726548  0.55612903  0.42934320     0.35900
C182        C  0.24468236  0.63556517  0.43008249     0.35900
C183        C  0.26725664  0.55602243  0.31110075     0.35900
C184        C  0.24473316  0.63548228  0.31032095     0.35900
C185        C  0.32634476  0.45875684  0.38450464    -0.21600
C186        C  0.32633967  0.45872764  0.35597371    -0.21600
C187        C  0.24207422  0.75608109  0.38481101    -0.21600
C188        C  0.24210122  0.75606279  0.35554334    -0.21600
C189        C  0.25408134  0.56610410  0.45651197    -0.22700
C190        C  0.23963802  0.61593100  0.45706764    -0.22700
C191        C  0.25406444  0.56595304  0.28393137    -0.22700
C192        C  0.23966709  0.61579952  0.28334927    -0.22700
C193        C  0.28776893  0.50984868  0.42065400    -0.18000
C194        C  0.28775631  0.50975243  0.31980791    -0.18000
C195        C  0.23885642  0.68804801  0.31789142    -0.18000
C196        C  0.23877269  0.68811171  0.42248722    -0.18000
H197        H  0.34572368  0.43294262  0.39760597     0.14900
H198        H  0.34571382  0.43288576  0.34288060     0.14900
H199        H  0.24313616  0.78973632  0.39807335     0.14900
H200        H  0.24318556  0.78970148  0.34226887     0.14900
H201        H  0.25512205  0.54018796  0.47410888     0.13200
H202        H  0.22740851  0.63503623  0.47560956     0.13200
H203        H  0.25507450  0.53999558  0.26635039     0.13200
H204        H  0.22745532  0.63488648  0.26479947     0.13200
H205        H  0.25489567  0.54968065  0.37022482     0.26400
H206        H  0.23459105  0.63558746  0.37019928     0.26400
C207        C  0.58830321  0.51764129  0.47430036    -0.10600
C208        C  0.60642386  0.56196679  0.48602580    -0.04500
C209        C  0.58253313  0.59320258  0.00421731    -0.10600
C210        C  0.53610177  0.58356128  0.00869674     0.10400
C211        C  0.51541750  0.54105676  0.49488211    -0.02400
C212        C  0.54180959  0.50722946  0.47792837     0.10200
C213        C  0.52072750  0.46567801  0.46452464    -0.12400
C214        C  0.47425188  0.45730699  0.46750000    -0.12400
C215        C  0.44787500  0.48937925  0.48460016     0.10200
C216        C  0.46854918  0.53181478  0.49847028    -0.02400
C217        C  0.50977174  0.61542888  0.02594165    -0.12500
C218        C  0.46323396  0.60719703  0.02880796    -0.12500
C219        C  0.44207093  0.56588462  0.01522529     0.10400
C220        C  0.39536981  0.55605858  0.01838045    -0.10600
C221        C  0.37724134  0.51171368  0.50663494    -0.04500
C222        C  0.40131461  0.48017395  0.48868741    -0.10600
H223        H  0.54004027  0.43987729  0.45135858     0.07600
H224        H  0.45910156  0.42490714  0.45683800     0.07600
H225        H  0.52494145  0.64776841  0.03664443     0.07800
H226        H  0.44389474  0.63304075  0.04193362     0.07800
H227        H  0.64232793  0.56932509  0.48362398     0.04300
H228        H  0.34125517  0.50475468  0.50865287     0.04300
C229        C  0.86230882  0.98606203  0.28165517     0.80500
N230        N  0.83547008  0.01358566  0.29909152    -0.77800
C231        C  0.79242668  0.99969296  0.30415235     0.82900
N232        N  0.77636824  0.95567184  0.29331561    -0.77800
C233        C  0.80313480  0.92557069  0.27712972     0.83000
N234        N  0.84583140  0.94161895  0.27027712    -0.79500
C235        C  0.86215397  0.98593329  0.45922028     0.80500
N236        N  0.83527707  0.01345703  0.44181553    -0.77800
C237        C  0.79221073  0.99959197  0.43682308     0.82900
N238        N  0.77616978  0.95557681  0.44768433    -0.77800
C239        C  0.80297799  0.92546772  0.46383599     0.83000
N240        N  0.84569684  0.94150270  0.47062705    -0.79500
N241        N  0.75651708  0.04814389  0.37049714    -0.36300
N242        N  0.74666992  0.12581147  0.41344792    -0.56900
N243        N  0.73775196  0.20633333  0.37050152    -0.36300
N244        N  0.74682065  0.12588197  0.32755683    -0.56900
C245        C  0.75422687  0.01752742  0.39298794     0.27200
C246        C  0.75435348  0.01756339  0.34798872     0.27200
C247        C  0.73780379  0.23647356  0.39402450     0.27200
C248        C  0.73780358  0.23649717  0.34698572     0.27200
C249        C  0.75639085  0.08439457  0.42959782     0.35900
C250        C  0.74346604  0.16645900  0.43095992     0.35900
C251        C  0.75659505  0.08448264  0.31140508     0.35900
C252        C  0.74353543  0.16651800  0.31004318     0.35900
C253        C  0.74959236  0.96678653  0.38482110    -0.21600
C254        C  0.74967628  0.96680815  0.35612474    -0.21600
C255        C  0.73699361  0.28720084  0.38517681    -0.21600
C256        C  0.73699140  0.28721546  0.35584796    -0.21600
C257        C  0.75822642  0.09815151  0.45737809    -0.22700
C258        C  0.74944589  0.14939238  0.45832977    -0.22700
C259        C  0.75839380  0.09823858  0.28362270    -0.22700
C260        C  0.74951921  0.14945868  0.28267149    -0.22700
C261        C  0.76359966  0.03381477  0.42006099    -0.18000
C262        C  0.76383440  0.03390774  0.32093638    -0.18000
C263        C  0.73860959  0.21918460  0.31795710    -0.18000
C264        C  0.73860295  0.21913543  0.42304749    -0.18000
H265        H  0.74812746  0.93308025  0.39799930     0.14900
H266        H  0.74827801  0.93311797  0.34293266     0.14900
H267        H  0.73664428  0.32087192  0.39844596     0.14900
H268        H  0.73664201  0.32089921  0.34258872     0.14900
H269        H  0.76423079  0.07350186  0.47511012     0.13200
H270        H  0.74811698  0.17113270  0.47728164     0.13200
H271        H  0.76441072  0.07359472  0.26588759     0.13200
H272        H  0.74812268  0.17118908  0.26371843     0.13200
H273        H  0.76518533  0.08658378  0.37051013     0.26400
H274        H  0.73714728  0.16686299  0.37050001     0.26400
C275        C  0.87075950  0.12050787  0.02333806     0.80500
N276        N  0.84782950  0.08885303  0.04076933    -0.77800
C277        C  0.80547642  0.09990457  0.04929213     0.82900
N278        N  0.78634310  0.14515705  0.04209382    -0.77800
C279        C  0.80902798  0.17843025  0.02531600     0.83000
N280        N  0.85066009  0.16519939  0.01505299    -0.79500
C281        C  0.87085262  0.12062898  0.21753939     0.80500
N282        N  0.84790109  0.08896199  0.20013023    -0.77800
C283        C  0.80551576  0.09997676  0.19166387     0.82900
N284        N  0.78637102  0.14520869  0.19889424    -0.77800
C285        C  0.80907797  0.17849519  0.21564739     0.83000
N286        N  0.85074519  0.16529981  0.22585350    -0.79500
N287        N  0.77445783  0.05560594  0.12049026    -0.36300
N288        N  0.75918581  0.97706976  0.07759594    -0.56900
N289        N  0.73786270  0.89983659  0.12050952    -0.36300
N290        N  0.75917077  0.97714062  0.16340344    -0.56900
C291        C  0.79220334  0.07926529  0.09796371     0.27200
C292        C  0.79220484  0.07929624  0.14300269     0.27200
C293        C  0.73917163  0.86952192  0.09710456     0.27200
C294        C  0.73918710  0.86955320  0.14392451     0.27200
C295        C  0.76505765  0.01921079  0.06127661     0.35900
C296        C  0.74395392  0.93928316  0.06050391     0.35900
C297        C  0.76505470  0.01928898  0.17971465     0.35900
C298        C  0.74395808  0.93935870  0.18050761     0.35900
C299        C  0.82013547  0.11929100  0.10623823    -0.21600
C300        C  0.82013551  0.11931128  0.13470379    -0.21600
C301        C  0.74020696  0.81879387  0.10589491    -0.21600
C302        C  0.74021697  0.81881335  0.13515260    -0.21600
C303        C  0.75387842  0.00837583  0.03387863    -0.22700
C304        C  0.74031783  0.95830496  0.03330692    -0.22700
C305        C  0.75389421  0.00846688  0.20712007    -0.22700
C306        C  0.74033772  0.95839406  0.20770498    -0.22700
C307        C  0.78422685  0.06612379  0.07004470    -0.18000
C308        C  0.78423560  0.06618842  0.17092967    -0.18000
C309        C  0.73808200  0.88682971  0.17279521    -0.18000
C310        C  0.73804903  0.88676427  0.06822813    -0.18000
H311        H  0.83925662  0.14544988  0.09319239     0.14900
H312        H  0.83925572  0.14548939  0.14773324     0.14900
H313        H  0.74072519  0.78511686  0.09263598     0.14900
H314        H  0.74074311  0.78515340  0.14842417     0.14900
H315        H  0.75565922  0.03389455  0.01614037     0.13200
H316        H  0.72953419  0.93870273  0.01461165     0.13200
H317        H  0.75569273  0.03399167  0.22485525     0.13200
H318        H  0.72957987  0.93879678  0.22641094     0.13200
H319        H  0.75111117  0.02588642  0.12049725     0.26400
H320        H  0.73465575  0.93935986  0.12050496     0.26400
C321        C  0.89594910  0.01731115  0.26634989    -0.10600
C322        C  0.87772954  0.06170346  0.25476637    -0.04500
C323        C  0.90151634  0.09319856  0.23666796    -0.12200
C324        C  0.94793433  0.08366175  0.23211651     0.10400
C325        C  0.96867622  0.04097464  0.24573347    -0.02400
C326        C  0.94237739  0.00691797  0.26258871     0.10200
C327        C  0.96347550  0.96514889  0.27577361    -0.12400
C328        C  0.00992806  0.95684868  0.27272476    -0.12400
C329        C  0.03624314  0.98923281  0.25577403     0.10200
C330        C  0.01551552  0.03181284  0.24207024    -0.02400
C331        C  0.97419467  0.11579620  0.21498782    -0.12500
C332        C  0.02071409  0.10760426  0.21202852    -0.12500
C333        C  0.04191381  0.06610254  0.22541709     0.10400
C334        C  0.08859114  0.05634413  0.22219267    -0.10600
C335        C  0.10685603  0.01203878  0.23389970    -0.04500
C336        C  0.08281460  0.98023799  0.25171261    -0.10600
H337        H  0.94420360  0.93913719  0.28883841     0.07600
H338        H  0.02511727  0.92430626  0.28323399     0.07600
H339        H  0.95898457  0.14828889  0.20444769     0.07800
H340        H  0.04001134  0.13364689  0.19899734     0.07800
H341        H  0.84183721  0.06895857  0.25722421     0.04300
H342        H  0.14287699  0.00523297  0.23190390     0.04300
C343        C  0.11296699  0.95349956  0.27140929     0.80500
N344        N  0.13387273  0.90907914  0.26358696    -0.77800
C345        C  0.17501593  0.89629431  0.27468093     0.82900
N346        N  0.19648760  0.92976725  0.29197221    -0.77800
C347        C  0.17645963  0.97477621  0.29883273     0.83000
N348        N  0.13458819  0.98544127  0.28930675    -0.79500
C349        C  0.11286214  0.95361360  0.46907101     0.80500
N350        N  0.13445337  0.98554270  0.45114764    -0.77800
C351        C  0.17630690  0.97486551  0.44158579     0.82900
N352        N  0.19634417  0.92986030  0.44842943    -0.77800
C353        C  0.17489831  0.89639369  0.46573758     0.83000
N354        N  0.13377634  0.90918853  0.47687344    -0.79500
N355        N  0.20507423  0.02045140  0.37021347    -0.36300
N356        N  0.22181627  0.09829006  0.32727398    -0.56900
N357        N  0.24454962  0.17512620  0.37022223    -0.36300
N358        N  0.22173838  0.09836222  0.41315820    -0.56900
C359        C  0.18776978  0.99647694  0.34766681     0.27200
C360        C  0.18769700  0.99652539  0.39275691     0.27200
C361        C  0.24272139  0.20540105  0.34680987     0.27200
C362        C  0.24271143  0.20542694  0.39362665     0.27200
C363        C  0.21617945  0.05598013  0.31103995     0.35900
C364        C  0.23827242  0.13560844  0.31029993     0.35900
C365        C  0.21601062  0.05607281  0.42939438     0.35900
C366        C  0.23815813  0.13567715  0.43014483     0.35900
C367        C  0.16020118  0.95612406  0.35594824    -0.21600
C368        C  0.16015365  0.95615582  0.38447336    -0.21600
C369        C  0.24077978  0.25610280  0.35558259    -0.21600
C370        C  0.24077583  0.25611886  0.38483997    -0.21600
C371        C  0.22871064  0.06629912  0.28379589    -0.22700
C372        C  0.24288015  0.11620201  0.28324245    -0.22700
C373        C  0.22844102  0.06640575  0.45665143    -0.22700
C374        C  0.24264943  0.11629106  0.45721109    -0.22700
C375        C  0.19647091  0.00924882  0.31975763    -0.18000
C376        C  0.19631830  0.00934372  0.42066633    -0.18000
C377        C  0.24420845  0.18818956  0.42249310    -0.18000
C378        C  0.24425038  0.18813593  0.31794803    -0.18000
H379        H  0.14164172  0.92951836  0.34286319     0.14900
H380        H  0.14154978  0.92957928  0.39755717     0.14900
H381        H  0.23963500  0.28974235  0.34231217     0.14900
H382        H  0.23962339  0.28977146  0.39810080     0.14900
H383        H  0.22751330  0.04050803  0.26616042     0.13200
H384        H  0.25468843  0.13548196  0.26465960     0.13200
H385        H  0.22714800  0.04063523  0.47429118     0.13200
H386        H  0.25440358  0.13557592  0.47580167     0.13200
H387        H  0.22828303  0.05027536  0.37021876     0.26400
H388        H  0.24853507  0.13565373  0.37022460     0.26400
C389        C  0.12249856  0.08832674  0.20750724     0.80500
N390        N  0.15025795  0.06138560  0.19035239    -0.77800
C391        C  0.19323070  0.07608949  0.18576610     0.82900
N392        N  0.20831102  0.12033836  0.19682211    -0.77800
C393        C  0.18074293  0.14983730  0.21283706     0.83000
N394        N  0.13807155  0.13296224  0.21922301    -0.79500
C395        C  0.12244914  0.08843379  0.03301601     0.80500
N396        N  0.15022759  0.06147936  0.05014399    -0.77800
C397        C  0.19321144  0.07616893  0.05469198     0.82900
N398        N  0.20828516  0.12041452  0.04362507    -0.77800
C399        C  0.18069981  0.14992233  0.02763439     0.83000
N400        N  0.13801633  0.13306173  0.02128562    -0.79500
N401        N  0.23018238  0.02763009  0.12020925    -0.36300
N402        N  0.23933066  0.95000409  0.07723355    -0.56900
N403        N  0.24709465  0.86942950  0.12018152    -0.36300
N404        N  0.23934519  0.94994767  0.16315510    -0.56900
C405        C  0.23347852  0.05810382  0.09772269     0.27200
C406        C  0.23347701  0.05807517  0.14270642     0.27200
C407        C  0.24682442  0.83927127  0.09665217     0.27200
C408        C  0.24685486  0.83924106  0.14370034     0.27200
C409        C  0.22957454  0.99150738  0.06116439     0.35900
C410        C  0.24156835  0.90927467  0.05971189     0.35900
C411        C  0.22958470  0.99143166  0.17924182     0.35900
C412        C  0.24161356  0.90920280  0.18066414     0.35900
C413        C  0.23985299  0.10861287  0.10585541    -0.21600
C414        C  0.23985229  0.10859464  0.13459061    -0.21600
C415        C  0.24722976  0.78855196  0.10550413    -0.21600
C416        C  0.24724917  0.78853300  0.13482770    -0.21600
C417        C  0.22683823  0.97774851  0.03341787    -0.22700
C418        C  0.23499266  0.92635731  0.03239700    -0.22700
C419        C  0.22687110  0.97764549  0.20698641    -0.22700
C420        C  0.23504937  0.92625838  0.20798661    -0.22700
C421        C  0.22300097  0.04213272  0.07077871    -0.18000
C422        C  0.22300196  0.04206750  0.16964780    -0.18000
C423        C  0.24616480  0.85648305  0.17274930    -0.18000
C424        C  0.24609965  0.85654648  0.06761135    -0.18000
H425        H  0.24227220  0.14217122  0.09260874     0.14900
H426        H  0.24227325  0.14213708  0.14784833     0.14900
H427        H  0.24726947  0.75487651  0.09223819     0.14900
H428        H  0.24730542  0.75484007  0.14807988     0.14900
H429        H  0.22059190  0.00249816  0.01576310     0.13200
H430        H  0.23538740  0.90448618  0.01346239     0.13200
H431        H  0.22062581  0.00237387  0.22465484     0.13200
H432        H  0.23546971  0.90437221  0.22691432     0.13200
H433        H  0.21996853  0.98963486  0.12020416     0.26400
H434        H  0.24792513  0.90889182  0.12018703     0.26400
C435        C  0.90139100  0.09306494  0.00418429    -0.10600
C436        C  0.87758045  0.06155626  0.48611274    -0.04500
C437        C  0.89580577  0.01719328  0.47449315    -0.10600
C438        C  0.94225096  0.00684337  0.47818567     0.10400
C439        C  0.96856567  0.04090516  0.49501855    -0.02400
C440        C  0.94782303  0.08354998  0.00868335     0.10200
C441        C  0.97409628  0.11566648  0.02580600    -0.12400
C442        C  0.02063126  0.10752760  0.02869347    -0.12400
C443        C  0.04183853  0.06610424  0.01523068     0.10200
C444        C  0.01542642  0.03180241  0.49860247    -0.02400
C445        C  0.96334666  0.96511518  0.46495343    -0.12500
C446        C  0.00981808  0.95687294  0.46792452    -0.12500
C447        C  0.03615843  0.98927743  0.48484077     0.10400
C448        C  0.08276461  0.98037502  0.48880137    -0.10600
C449        C  0.10684560  0.01223637  0.50655490    -0.04500
C450        C  0.08854720  0.05645164  0.01834367    -0.10600
H451        H  0.95888515  0.14811439  0.03639119     0.07600
H452        H  0.03994086  0.13356736  0.04171387     0.07600
H453        H  0.94405796  0.93909710  0.45190734     0.07800
H454        H  0.02500672  0.92437001  0.45737394     0.07800
H455        H  0.84167683  0.06878034  0.48370064     0.04300
H456        H  0.14289166  0.00552740  0.50846604     0.04300
O457        O  0.77724170  0.75218982  0.27445516    -0.71500
O458        O  0.76891814  0.82036756  0.20290199    -0.71700
O459        O  0.80430362  0.84403318  0.25352838    -0.71600
O460        O  0.74110892  0.72892923  0.22327899    -0.71600
O461        O  0.67705514  0.76117447  0.23688894    -0.71600
O462        O  0.73960185  0.87547005  0.26649219    -0.71600
O463        O  0.70456150  0.85268793  0.21557365    -0.71500
O464        O  0.71309218  0.78456346  0.28747673    -0.71700
V465        V  0.77158254  0.78673607  0.23884152     1.35200
V466        V  0.70989395  0.81798318  0.25124157     1.35200
C467        C  0.74656929  0.75586190  0.29311597     0.77700
C468        C  0.73599064  0.84973638  0.19734239     0.77800
C469        C  0.78208736  0.87962253  0.26509383     0.77600
C470        C  0.69847500  0.72513875  0.22532505     0.77600
O471        O  0.24148525  0.84587601  0.26767143    -0.71500
O472        O  0.30495162  0.73123678  0.23657697    -0.71700
O473        O  0.27732529  0.82358699  0.21628956    -0.71600
O474        O  0.26987040  0.75407673  0.28752405    -0.71600
O475        O  0.20513712  0.72238886  0.27515721    -0.71600
O476        O  0.21367415  0.79023495  0.20309464    -0.71600
O477        O  0.24009708  0.69935524  0.22429929    -0.71500
O478        O  0.17764771  0.81373902  0.25362484    -0.71700
V479        V  0.27212681  0.78831049  0.25172752     1.35200
V480        V  0.21047306  0.75693266  0.23940772     1.35200
C481        C  0.19886128  0.84967816  0.26540143     0.77700
C482        C  0.28261794  0.69543045  0.22525116     0.77800
C483        C  0.24677733  0.81960265  0.19757744     0.77600
C484        C  0.23678712  0.72502144  0.29325394     0.77600
O485        O  0.17753392  0.81382811  0.48675636    -0.71500
O486        O  0.23993427  0.69944756  0.01607815    -0.71700
O487        O  0.21355551  0.79034214  0.03727168    -0.71600
O488        O  0.20501588  0.72247958  0.46521474    -0.71600
O489        O  0.26975681  0.75415633  0.45283577    -0.71600
O490        O  0.27722595  0.82365244  0.02406106    -0.71600
O491        O  0.30480819  0.73127841  0.00378411    -0.71500
O492        O  0.24137772  0.84596201  0.47269956    -0.71700
V493        V  0.21034512  0.75702644  0.00096450     1.35200
V494        V  0.27201162  0.78837822  0.48863134     1.35200
C495        C  0.19875191  0.84977194  0.47498695     0.77700
C496        C  0.28245113  0.69549895  0.01513021     0.77800
C497        C  0.24667660  0.81968547  0.04277916     0.77600
C498        C  0.23667365  0.72510755  0.44711236     0.77600
O499        O  0.76882467  0.82026383  0.03811164    -0.71500
O500        O  0.77711971  0.75209916  0.46655769    -0.71700
O501        O  0.80418288  0.84393964  0.48746358    -0.71600
O502        O  0.74097014  0.72882435  0.01773479    -0.71600
O503        O  0.67692615  0.76109527  0.00414466    -0.71600
O504        O  0.73947330  0.87537748  0.47453500    -0.71600
O505        O  0.71297278  0.78447882  0.45355398    -0.71500
O506        O  0.70446910  0.85260227  0.02547187    -0.71700
V507        V  0.77146339  0.78663772  0.00216924     1.35200
V508        V  0.70977634  0.81789700  0.48979421     1.35200
C509        C  0.73591318  0.84964994  0.04368711     0.77700
C510        C  0.74645361  0.75577857  0.44790495     0.77800
C511        C  0.78195715  0.87952518  0.47590325     0.77600
C512        C  0.69833389  0.72503962  0.01568833     0.77600
O513        O  0.27830707  0.22247110  0.46511344    -0.71500
O514        O  0.27038199  0.29062974  0.03710345    -0.71700
O515        O  0.24375412  0.19983628  0.01610876    -0.71600
O516        O  0.30616357  0.31388094  0.48642284    -0.71600
O517        O  0.24227000  0.34636192  0.47272154    -0.71600
O518        O  0.17887952  0.23150522  0.00370578    -0.71600
O519        O  0.20647846  0.32364678  0.02412576    -0.71500
O520        O  0.21374663  0.25464834  0.45276813    -0.71700
V521        V  0.27332371  0.25722823  0.00081572     1.35200
V522        V  0.21163459  0.28867498  0.48861113     1.35200
C523        C  0.24660883  0.22527868  0.44705555     0.77700
C524        C  0.23711645  0.31965563  0.04277624     0.77800
C525        C  0.20125427  0.19583129  0.01512880     0.77600
C526        C  0.28494458  0.34998386  0.47480392     0.77600
O527        O  0.80717373  0.26125551  0.23683082    -0.71500
O528        O  0.74460198  0.37562555  0.26642062    -0.71700
O529        O  0.77127497  0.28483975  0.28744635    -0.71600
O530        O  0.77956975  0.35268702  0.21547006    -0.71600
O531        O  0.71506997  0.32051440  0.20297831    -0.71600
O532        O  0.70724213  0.25209116  0.27449793    -0.71600
O533        O  0.67986028  0.34398038  0.25371471    -0.71500
O534        O  0.74312000  0.22905756  0.22321004    -0.71700
V535        V  0.77433416  0.31811394  0.25117766     1.35200
V536        V  0.71263066  0.28677313  0.23889853     1.35200
C537        C  0.78575557  0.22524074  0.22523893     0.77700
C538        C  0.70208853  0.37967714  0.26517122     0.77800
C539        C  0.73794309  0.25594720  0.29312297     0.77600
C540        C  0.74804189  0.34976681  0.19731582     0.77600
O541        O  0.20657328  0.32360334  0.21632183    -0.71500
O542        O  0.21377175  0.25455993  0.28766859    -0.71700
O543        O  0.24232714  0.34627340  0.26773387    -0.71600
O544        O  0.17893298  0.23145292  0.23673239    -0.71600
O545        O  0.24381011  0.19974084  0.22434931    -0.71600
O546        O  0.30622098  0.31380871  0.25400340    -0.71600
O547        O  0.27835937  0.22242206  0.27532857    -0.71500
O548        O  0.27045394  0.29052883  0.20332738    -0.71700
V549        V  0.21169183  0.28860714  0.25183208     1.35200
V550        V  0.27338245  0.25714911  0.23962210     1.35200
C551        C  0.23720971  0.31958600  0.19766244     0.77700
C552        C  0.24664425  0.22521258  0.29338319     0.77800
C553        C  0.28500195  0.34989505  0.26564503     0.77600
C554        C  0.20130700  0.19575243  0.22532758     0.77600
O555        O  0.71498134  0.32048888  0.03800815    -0.71500
O556        O  0.70723215  0.25202752  0.46650695    -0.71700
O557        O  0.74306972  0.22901908  0.01779455    -0.71600
O558        O  0.67983179  0.34392211  0.48725350    -0.71600
O559        O  0.74459183  0.37556574  0.47456359    -0.71600
O560        O  0.80713039  0.26121230  0.00416476    -0.71600
O561        O  0.77127006  0.28478180  0.45355206    -0.71500
O562        O  0.77949925  0.35265034  0.02552386    -0.71700
V563        V  0.71258639  0.28672789  0.00209465     1.35200
V564        V  0.77430162  0.31806532  0.48981717     1.35200
C565        C  0.74795167  0.34973333  0.04367481     0.77700
C566        C  0.73794146  0.25588663  0.44788114     0.77800
C567        C  0.78570663  0.22519399  0.01575335     0.77600
C568        C  0.70207693  0.37960555  0.47578848     0.77600
C569        C  0.62213766  0.48652353  0.78175277     0.80500
N570        N  0.64917380  0.51401634  0.79909748    -0.77800
C571        C  0.69214681  0.49983458  0.80418967     0.82900
N572        N  0.70796693  0.45566751  0.79340346    -0.77800
C573        C  0.68108178  0.42566922  0.77724753     0.83000
N574        N  0.63842273  0.44192532  0.77041440    -0.79500
C575        C  0.62215000  0.48639978  0.95910427     0.80500
N576        N  0.64923523  0.51390519  0.94178896    -0.77800
C577        C  0.69222993  0.49973940  0.93674155     0.82900
N578        N  0.70802728  0.45557770  0.94754357    -0.77800
C579        C  0.68109647  0.42557466  0.96367688     0.83000
N580        N  0.63841118  0.44181413  0.97046308    -0.79500
N581        N  0.72849518  0.54808101  0.87047565    -0.36300
N582        N  0.73823873  0.62573428  0.91342607    -0.56900
N583        N  0.74759917  0.70618756  0.87050400    -0.36300
N584        N  0.73819710  0.62579676  0.82755764    -0.56900
C585        C  0.73062166  0.51745864  0.89296748     0.27200
C586        C  0.73055542  0.51749414  0.84796615     0.27200
C587        C  0.74657699  0.73633771  0.89402748     0.27200
C588        C  0.74661954  0.73636589  0.84699086     0.27200
C589        C  0.72851963  0.58430669  0.92957055     0.35900
C590        C  0.74161003  0.66631722  0.93096709     0.35900
C591        C  0.72841755  0.58440581  0.81140111     0.35900
C592        C  0.74162346  0.66639397  0.81003008     0.35900
C593        C  0.73515191  0.46670380  0.88480206    -0.21600
C594        C  0.73510866  0.46672555  0.85610189    -0.21600
C595        C  0.74594609  0.78706488  0.88517978    -0.21600
C596        C  0.74597491  0.78708250  0.85585665    -0.21600
C597        C  0.72680178  0.59799541  0.95736105    -0.22700
C598        C  0.73573659  0.64919555  0.95834346    -0.22700
C599        C  0.72670877  0.59813258  0.78361636    -0.22700
C600        C  0.73572379  0.64931460  0.78265099    -0.22700
C601        C  0.72109224  0.53379324  0.92001641    -0.18000
C602        C  0.72097316  0.53388217  0.82093591    -0.18000
C603        C  0.74618786  0.71908605  0.81795288    -0.18000
C604        C  0.74610796  0.71902575  0.92305918    -0.18000
H605        H  0.73647054  0.43298998  0.89797918     0.14900
H606        H  0.73639448  0.43302896  0.84291048     0.14900
H607        H  0.74523812  0.82073174  0.89844628     0.14900
H608        H  0.74529009  0.82076518  0.84260215     0.14900
H609        H  0.72063226  0.57334692  0.97506967     0.13200
H610        H  0.73702776  0.67089858  0.97731762     0.13200
H611        H  0.72051542  0.57351693  0.76589777     0.13200
H612        H  0.73706672  0.67103410  0.76368606     0.13200
H613        H  0.71991845  0.58655584  0.87049006     0.26400
H614        H  0.74957070  0.66673702  0.87049711     0.26400
C615        C  0.61324857  0.62075227  0.71751246     0.80500
N616        N  0.63620677  0.58906214  0.70010581    -0.77800
C617        C  0.67864482  0.60003272  0.69168939     0.82900
N618        N  0.69784593  0.64517648  0.69898862    -0.77800
C619        C  0.67513298  0.67846514  0.71572328     0.83000
N620        N  0.63339690  0.66537188  0.72585594    -0.79500
C621        C  0.61310880  0.62060844  0.52341120     0.80500
N622        N  0.63600221  0.58895329  0.54086459    -0.77800
C623        C  0.67839444  0.59996826  0.54934161     0.82900
N624        N  0.69761360  0.64510738  0.54204884    -0.77800
C625        C  0.67496369  0.67836369  0.52527220     0.83000
N626        N  0.63327705  0.66523291  0.51508295    -0.79500
N627        N  0.70990259  0.55586482  0.62049845    -0.36300
N628        N  0.72498886  0.47723147  0.66338445    -0.56900
N629        N  0.74610937  0.39987245  0.62049198    -0.36300
N630        N  0.72478127  0.47716515  0.57761520    -0.56900
C631        C  0.69250275  0.57983061  0.64303174     0.27200
C632        C  0.69237892  0.57978527  0.59799184     0.27200
C633        C  0.74489299  0.36958065  0.64390288     0.27200
C634        C  0.74484243  0.36956398  0.59708873     0.27200
C635        C  0.71890410  0.51928651  0.67973703     0.35900
C636        C  0.73992846  0.43934787  0.68050813     0.35900
C637        C  0.71863499  0.51920495  0.56126307     0.35900
C638        C  0.73973397  0.43929840  0.56048109     0.35900
C639        C  0.66517879  0.62039649  0.63476061    -0.21600
C640        C  0.66509844  0.62036421  0.60629931    -0.21600
C641        C  0.74399875  0.31884027  0.63512908    -0.21600
C642        C  0.74396904  0.31882995  0.60587198    -0.21600
C643        C  0.72964984  0.50829289  0.70717965    -0.22700
C644        C  0.74320155  0.45824137  0.70774543    -0.22700
C645        C  0.72934334  0.50821490  0.53381196    -0.22700
C646        C  0.74294810  0.45818381  0.53323973    -0.22700
C647        C  0.70000773  0.56632516  0.67095445    -0.18000
C648        C  0.69975263  0.56623950  0.57006174    -0.18000
C649        C  0.74578731  0.38681659  0.56821693    -0.18000
C650        C  0.74590230  0.38684918  0.67277203    -0.18000
H651        H  0.64639781  0.64687377  0.64780356     0.14900
H652        H  0.64624590  0.64680834  0.59328146     0.14900
H653        H  0.74355817  0.28517770  0.64839989     0.14900
H654        H  0.74349911  0.28515938  0.59260745     0.14900
H655        H  0.72759572  0.53369991  0.72494917     0.13200
H656        H  0.75373975  0.43856051  0.72646072     0.13200
H657        H  0.72723531  0.53361407  0.51604343     0.13200
H658        H  0.75348878  0.43850784  0.51452076     0.13200
H659        H  0.73271942  0.52564414  0.62048071     0.26400
H660        H  0.74918550  0.43940041  0.62048500     0.26400
C661        C  0.58258197  0.59338490  0.73666907    -0.10600
C662        C  0.60639696  0.56220447  0.75491965    -0.04500
C663        C  0.58830532  0.51776662  0.76654308    -0.10600
C664        C  0.54185624  0.50724326  0.76279244     0.10400
C665        C  0.51550548  0.54106950  0.74581830    -0.02400
C666        C  0.53620422  0.58364202  0.73207381     0.10200
C667        C  0.50993329  0.61549517  0.71479347    -0.12400
C668        C  0.46342080  0.60720164  0.71184093    -0.12400
C669        C  0.44223228  0.56584199  0.72537057     0.10200
C670        C  0.46866668  0.53176897  0.74214499    -0.02400
C671        C  0.52076367  0.46560233  0.77611041    -0.12500
C672        C  0.47430952  0.45718131  0.77306007    -0.12500
C673        C  0.44797146  0.48928351  0.75596045     0.10400
C674        C  0.40142862  0.48006386  0.75182645    -0.10600
C675        C  0.37740299  0.51161344  0.73386584    -0.04500
C676        C  0.39555072  0.55597919  0.72214849    -0.10600
H677        H  0.52512205  0.64788271  0.70414021     0.07600
H678        H  0.44412038  0.63304505  0.69869859     0.07600
H679        H  0.54004269  0.43979055  0.78928333     0.07800
H680        H  0.45914365  0.42473044  0.78367103     0.07800
H681        H  0.64226263  0.56967096  0.75741564     0.04300
H682        H  0.34142895  0.50463925  0.73181371     0.04300
C683        C  0.36151755  0.58793037  0.70749667     0.80500
N684        N  0.34592279  0.63259501  0.71919714    -0.77800
C685        C  0.30326510  0.64951427  0.71277349     0.82900
N686        N  0.27575571  0.62007070  0.69670834    -0.77800
C687        C  0.29083205  0.57582298  0.68565942     0.83000
N688        N  0.33375988  0.56100013  0.69033473    -0.79500
C689        C  0.36129983  0.58802108  0.53299568     0.80500
N690        N  0.34573440  0.63266555  0.52126301    -0.77800
C691        C  0.30305464  0.64958410  0.52763881     0.82900
N692        N  0.27549597  0.62015141  0.54369176    -0.77800
C693        C  0.29054558  0.57591240  0.55476663     0.83000
N694        N  0.33349317  0.56110274  0.55013932    -0.79500
N695        N  0.25354578  0.52732625  0.62022011    -0.36300
N696        N  0.24423171  0.44982329  0.57727089    -0.56900
N697        N  0.23641657  0.36921661  0.62022261    -0.36300
N698        N  0.24449388  0.44974220  0.66316588    -0.56900
C699        C  0.25003252  0.55778692  0.59774133     0.27200
C700        C  0.25019165  0.55774931  0.64272322     0.27200
C701        C  0.23688468  0.33905669  0.59669273     0.27200
C702        C  0.23693939  0.33902811  0.64374273     0.27200
C703        C  0.25420731  0.49126814  0.56120519     0.35900
C704        C  0.24227424  0.40906932  0.55976795     0.35900
C705        C  0.25451756  0.49117228  0.67922514     0.35900
C706        C  0.24248771  0.40899517  0.68067125     0.35900
C707        C  0.24342555  0.60824711  0.60588277    -0.21600
C708        C  0.24352737  0.60822434  0.63462365    -0.21600
C709        C  0.23682199  0.28833026  0.60554518    -0.21600
C710        C  0.23685305  0.28831258  0.63487385    -0.21600
C711        C  0.25734151  0.47746115  0.53348159    -0.22700
C712        C  0.24925893  0.42608037  0.53248001    -0.22700
C713        C  0.25764189  0.47736401  0.70694901    -0.22700
C714        C  0.24950103  0.42599451  0.70795557    -0.22700
C715        C  0.26066938  0.54188477  0.57081149    -0.18000
C716        C  0.26097754  0.54178771  0.66961853    -0.18000
C717        C  0.23777760  0.35631110  0.67278366    -0.18000
C718        C  0.23765342  0.35637097  0.56765638    -0.18000
H719        H  0.24084882  0.64178624  0.59263277     0.14900
H720        H  0.24103161  0.64174659  0.64789217     0.14900
H721        H  0.23707219  0.25465720  0.59227682     0.14900
H722        H  0.23713375  0.25462472  0.64813058     0.14900
H723        H  0.26380496  0.50216286  0.51582040     0.13200
H724        H  0.24920140  0.40414698  0.51358116     0.13200
H725        H  0.26409828  0.50206634  0.72460990     0.13200
H726        H  0.24939637  0.40406359  0.72685507     0.13200
H727        H  0.26400788  0.48941013  0.62019820     0.26400
H728        H  0.23530530  0.40867277  0.62022624     0.26400
C729        C  0.37117853  0.45350747  0.77157030     0.80500
N730        N  0.35016675  0.40909931  0.76382065    -0.77800
C731        C  0.30894737  0.39650445  0.77490111     0.82900
N732        N  0.28752076  0.43015738  0.79212065    -0.77800
C733        C  0.30764578  0.47515963  0.79889940     0.83000
N734        N  0.34957352  0.48563113  0.78938113    -0.79500
C735        C  0.37111513  0.45361571  0.96892354     0.80500
N736        N  0.34953732  0.48574131  0.95110692    -0.77800
C737        C  0.30762554  0.47526738  0.94157403     0.82900
N738        N  0.28749213  0.43026245  0.94834364    -0.77800
C739        C  0.30889431  0.39660594  0.96556542     0.83000
N740        N  0.35009497  0.40920162  0.97666048    -0.79500
N741        N  0.27927765  0.52104394  0.87022946    -0.36300
N742        N  0.26169748  0.59850919  0.91316145    -0.56900
N743        N  0.23846985  0.67508377  0.87019173    -0.36300
N744        N  0.26172477  0.59844254  0.82725771    -0.56900
C745        C  0.29736209  0.49781896  0.89277206     0.27200
C746        C  0.29735521  0.49777384  0.84769371     0.27200
C747        C  0.24024356  0.70538449  0.89360734     0.27200
C748        C  0.24028530  0.70535518  0.84676536     0.27200
C749        C  0.26726546  0.55612928  0.92934329     0.35900
C750        C  0.24468219  0.63556534  0.93008256     0.35900
C751        C  0.26725647  0.55602255  0.81110073     0.35900
C752        C  0.24473307  0.63548242  0.81032084     0.35900
C753        C  0.32634419  0.45875759  0.88450454    -0.21600
C754        C  0.32633917  0.45872831  0.85597372    -0.21600
C755        C  0.24207420  0.75608097  0.88481105    -0.21600
C756        C  0.24210126  0.75606249  0.85554341    -0.21600
C757        C  0.25408126  0.56610438  0.95651203    -0.22700
C758        C  0.23963782  0.61593129  0.95706775    -0.22700
C759        C  0.25406435  0.56595313  0.78393137    -0.22700
C760        C  0.23966701  0.61579975  0.78334910    -0.22700
C761        C  0.28776872  0.50984889  0.92065404    -0.18000
C762        C  0.28775626  0.50975267  0.81980791    -0.18000
C763        C  0.23885637  0.68804805  0.81789142    -0.18000
C764        C  0.23877259  0.68811181  0.92248722    -0.18000
H765        H  0.34572322  0.43294340  0.89760576     0.14900
H766        H  0.34571361  0.43288661  0.84288070     0.14900
H767        H  0.24313619  0.78973631  0.89807331     0.14900
H768        H  0.24318578  0.78970102  0.84226889     0.14900
H769        H  0.25512213  0.54018811  0.97410885     0.13200
H770        H  0.22740782  0.63503647  0.97560959     0.13200
H771        H  0.25507481  0.53999527  0.76635061     0.13200
H772        H  0.22745551  0.63488689  0.76479924     0.13200
H773        H  0.25489470  0.54968154  0.87022470     0.26400
H774        H  0.23459103  0.63558728  0.87019925     0.26400
C775        C  0.58830320  0.51764127  0.97430029    -0.10600
C776        C  0.60642387  0.56196668  0.98602574    -0.04500
C777        C  0.58253310  0.59320270  0.50421735    -0.10600
C778        C  0.53610178  0.58356137  0.50869683     0.10400
C779        C  0.51541747  0.54105674  0.99488205    -0.02400
C780        C  0.54180960  0.50722950  0.97792829     0.10200
C781        C  0.52072758  0.46567806  0.96452463    -0.12400
C782        C  0.47425195  0.45730712  0.96750008    -0.12400
C783        C  0.44787500  0.48937936  0.98460016     0.10200
C784        C  0.46854913  0.53181483  0.99847026    -0.02400
C785        C  0.50977168  0.61542913  0.52594168    -0.12500
C786        C  0.46323389  0.60719716  0.52880793    -0.12500
C787        C  0.44207096  0.56588463  0.51522530     0.10400
C788        C  0.39536983  0.55605861  0.51838047    -0.10600
C789        C  0.37724136  0.51171361  0.00663492    -0.04500
C790        C  0.40131464  0.48017394  0.98868741    -0.10600
H791        H  0.54004037  0.43987727  0.95135860     0.07600
H792        H  0.45910165  0.42490693  0.95683845     0.07600
H793        H  0.52494130  0.64776870  0.53664453     0.07800
H794        H  0.44389428  0.63304128  0.54193314     0.07800
H795        H  0.64232792  0.56932496  0.98362388     0.04300
H796        H  0.34125520  0.50475456  0.00865284     0.04300
C797        C  0.86230889  0.98606209  0.78165520     0.80500
N798        N  0.83547016  0.01358568  0.79909157    -0.77800
C799        C  0.79242673  0.99969296  0.80415237     0.82900
N800        N  0.77636832  0.95567184  0.79331563    -0.77800
C801        C  0.80313486  0.92557072  0.77712970     0.83000
N802        N  0.84583150  0.94161898  0.77027716    -0.79500
C803        C  0.86215382  0.98593340  0.95922037     0.80500
N804        N  0.83527698  0.01345712  0.94181560    -0.77800
C805        C  0.79221069  0.99959198  0.93682311     0.82900
N806        N  0.77616979  0.95557674  0.94768428    -0.77800
C807        C  0.80297798  0.92546768  0.96383597     0.83000
N808        N  0.84569678  0.94150273  0.97062710    -0.79500
N809        N  0.75651716  0.04814400  0.87049717    -0.36300
N810        N  0.74666993  0.12581149  0.91344794    -0.56900
N811        N  0.73775195  0.20633339  0.87050153    -0.36300
N812        N  0.74682058  0.12588200  0.82755676    -0.56900
C813        C  0.75422676  0.01752718  0.89298801     0.27200
C814        C  0.75435332  0.01756327  0.84798872     0.27200
C815        C  0.73780375  0.23647397  0.89402456     0.27200
C816        C  0.73780371  0.23649762  0.84698572     0.27200
C817        C  0.75639092  0.08439461  0.92959788     0.35900
C818        C  0.74346605  0.16645907  0.93095992     0.35900
C819        C  0.75659492  0.08448263  0.81140498     0.35900
C820        C  0.74353538  0.16651806  0.81004311     0.35900
C821        C  0.74959223  0.96678633  0.88482120    -0.21600
C822        C  0.74967614  0.96680818  0.85612481    -0.21600
C823        C  0.73699359  0.28720126  0.88517696    -0.21600
C824        C  0.73699140  0.28721590  0.85584803    -0.21600
C825        C  0.75822648  0.09815165  0.95737820    -0.22700
C826        C  0.74944592  0.14939246  0.95832978    -0.22700
C827        C  0.75839388  0.09823851  0.78362253    -0.22700
C828        C  0.74951933  0.14945872  0.78267134    -0.22700
C829        C  0.76359964  0.03381477  0.92006104    -0.18000
C830        C  0.76383436  0.03390776  0.82093636    -0.18000
C831        C  0.73860961  0.21918471  0.81795709    -0.18000
C832        C  0.73860303  0.21913552  0.92304751    -0.18000
H833        H  0.74812760  0.93307985  0.89799931     0.14900
H834        H  0.74827754  0.93311819  0.84293264     0.14900
H835        H  0.73664439  0.32087219  0.89844630     0.14900
H836        H  0.73664208  0.32089955  0.84258867     0.14900
H837        H  0.76423091  0.07350234  0.97511039     0.13200
H838        H  0.74811704  0.17113282  0.97728163     0.13200
H839        H  0.76441103  0.07359437  0.76588753     0.13200
H840        H  0.74812307  0.17118943  0.76371837     0.13200
H841        H  0.76518577  0.08658308  0.87051013     0.26400
H842        H  0.73714712  0.16686381  0.87049999     0.26400
C843        C  0.87075948  0.12050776  0.52333798     0.80500
N844        N  0.84782957  0.08885302  0.54076936    -0.77800
C845        C  0.80547649  0.09990457  0.54929212     0.82900
N846        N  0.78634312  0.14515699  0.54209375    -0.77800
C847        C  0.80902797  0.17843010  0.52531585     0.83000
N848        N  0.85066010  0.16519929  0.51505290    -0.79500
C849        C  0.87085261  0.12062895  0.71753938     0.80500
N850        N  0.84790102  0.08896190  0.70013024    -0.77800
C851        C  0.80551565  0.09997662  0.69166395     0.82900
N852        N  0.78637102  0.14520857  0.69889426    -0.77800
C853        C  0.80907803  0.17849516  0.71564733     0.83000
N854        N  0.85074524  0.16529983  0.72585347    -0.79500
N855        N  0.77445802  0.05560603  0.62049027    -0.36300
N856        N  0.75918594  0.97706991  0.57759601    -0.56900
N857        N  0.73786269  0.89983662  0.62050943    -0.36300
N858        N  0.75917068  0.97714079  0.66340357    -0.56900
C859        C  0.79220352  0.07926553  0.59796373     0.27200
C860        C  0.79220498  0.07929636  0.64300275     0.27200
C861        C  0.73917166  0.86952217  0.59710447     0.27200
C862        C  0.73918708  0.86955336  0.64392439     0.27200
C863        C  0.76505775  0.01921093  0.56127666     0.35900
C864        C  0.74395406  0.93928335  0.56050398     0.35900
C865        C  0.76505451  0.01928916  0.67971483     0.35900
C866        C  0.74395791  0.93935890  0.68050769     0.35900
C867        C  0.82013563  0.11929120  0.60623827    -0.21600
C868        C  0.82013568  0.11931142  0.63470387    -0.21600
C869        C  0.74020702  0.81879400  0.60589466    -0.21600
C870        C  0.74021703  0.81881334  0.63515236    -0.21600
C871        C  0.75387850  0.00837593  0.53387871    -0.22700
C872        C  0.74031797  0.95830509  0.53330705    -0.22700
C873        C  0.75389396  0.00846732  0.70712035    -0.22700
C874        C  0.74033759  0.95839436  0.70770511    -0.22700
C875        C  0.78422698  0.06612389  0.57004472    -0.18000
C876        C  0.78423549  0.06618844  0.67092974    -0.18000
C877        C  0.73808196  0.88682976  0.67279518    -0.18000
C878        C  0.73804912  0.88676446  0.56822810    -0.18000
H879        H  0.83925678  0.14545005  0.59319241     0.14900
H880        H  0.83925605  0.14548940  0.64773333     0.14900
H881        H  0.74072526  0.78511716  0.59263558     0.14900
H882        H  0.74074315  0.78515312  0.64842374     0.14900
H883        H  0.75565896  0.03389457  0.51614041     0.13200
H884        H  0.72953405  0.93870286  0.51461187     0.13200
H885        H  0.75569253  0.03399220  0.72485557     0.13200
H886        H  0.72957963  0.93879682  0.72641095     0.13200
H887        H  0.75111164  0.02588655  0.62049724     0.26400
H888        H  0.73465571  0.93936035  0.62050482     0.26400
C889        C  0.89594916  0.01731118  0.76634993    -0.10600
C890        C  0.87772958  0.06170346  0.75476640    -0.04500
C891        C  0.90151636  0.09319853  0.73666795    -0.12200
C892        C  0.94793438  0.08366167  0.73211647     0.10400
C893        C  0.96867624  0.04097453  0.74573344    -0.02400
C894        C  0.94237740  0.00691784  0.76258872     0.10200
C895        C  0.96347543  0.96514868  0.77577367    -0.12400
C896        C  0.00992807  0.95684851  0.77272477    -0.12400
C897        C  0.03624312  0.98923273  0.75577399     0.10200
C898        C  0.01551554  0.03181285  0.74207021    -0.02400
C899        C  0.97419476  0.11579616  0.71498776    -0.12500
C900        C  0.02071421  0.10760428  0.71202834    -0.12500
C901        C  0.04191387  0.06610260  0.72541699     0.10400
C902        C  0.08859114  0.05634410  0.72219254    -0.10600
C903        C  0.10685605  0.01203889  0.73389972    -0.04500
C904        C  0.08281462  0.98023803  0.75171259    -0.10600
H905        H  0.94420331  0.93913693  0.78883837     0.07600
H906        H  0.02511762  0.92430624  0.78323398     0.07600
H907        H  0.95898450  0.14828878  0.70444768     0.07800
H908        H  0.04001147  0.13364679  0.69899703     0.07800
H909        H  0.84183727  0.06895863  0.75722429     0.04300
H910        H  0.14287705  0.00523326  0.73190404     0.04300
C911        C  0.11296710  0.95349966  0.77140927     0.80500
N912        N  0.13387278  0.90907920  0.76358698    -0.77800
C913        C  0.17501597  0.89629443  0.77468093     0.82900
N914        N  0.19648766  0.92976735  0.79197220    -0.77800
C915        C  0.17645972  0.97477632  0.79883267     0.83000
N916        N  0.13458827  0.98544134  0.78930676    -0.79500
C917        C  0.11286204  0.95361357  0.96907102     0.80500
N918        N  0.13445324  0.98554265  0.95114764    -0.77800
C919        C  0.17630673  0.97486542  0.94158575     0.82900
N920        N  0.19634414  0.92986031  0.94842947    -0.77800
C921        C  0.17489830  0.89639366  0.96573759     0.83000
N922        N  0.13377635  0.90918856  0.97687349    -0.79500
N923        N  0.20507403  0.02045154  0.87021339    -0.36300
N924        N  0.22181631  0.09829005  0.82727401    -0.56900
N925        N  0.24454984  0.17512589  0.87022226    -0.36300
N926        N  0.22173830  0.09836217  0.91315830    -0.56900
C927        C  0.18776952  0.99647686  0.84766670     0.27200
C928        C  0.18769685  0.99652544  0.89275683     0.27200
C929        C  0.24272143  0.20540062  0.84680993     0.27200
C930        C  0.24271145  0.20542646  0.89362664     0.27200
C931        C  0.21617955  0.05598012  0.81103998     0.35900
C932        C  0.23827253  0.13560836  0.81029997     0.35900
C933        C  0.21601060  0.05607273  0.92939445     0.35900
C934        C  0.23815819  0.13567703  0.93014493     0.35900
C935        C  0.16020092  0.95612397  0.85594802    -0.21600
C936        C  0.16015364  0.95615597  0.88447314    -0.21600
C937        C  0.24077958  0.25610244  0.85558265    -0.21600
C938        C  0.24077566  0.25611844  0.88484000    -0.21600
C939        C  0.22871087  0.06629916  0.78379595    -0.22700
C940        C  0.24288032  0.11620206  0.78324250    -0.22700
C941        C  0.22844102  0.06640578  0.95665152    -0.22700
C942        C  0.24264958  0.11629108  0.95721122    -0.22700
C943        C  0.19647089  0.00924885  0.81975760    -0.18000
C944        C  0.19631808  0.00934375  0.92066632    -0.18000
C945        C  0.24420857  0.18818936  0.92249313    -0.18000
C946        C  0.24425048  0.18813576  0.81794808    -0.18000
H947        H  0.14164096  0.92951844  0.84286306     0.14900
H948        H  0.14155010  0.92957932  0.89755697     0.14900
H949        H  0.23963415  0.28974206  0.84231230     0.14900
H950        H  0.23962294  0.28977103  0.89810083     0.14900
H951        H  0.22751402  0.04050792  0.76616054     0.13200
H952        H  0.25468860  0.13548209  0.76465968     0.13200
H953        H  0.22714820  0.04063515  0.97429120     0.13200
H954        H  0.25440387  0.13557598  0.97580179     0.13200
H955        H  0.22828250  0.05027543  0.87021870     0.26400
H956        H  0.24853568  0.13565301  0.87022463     0.26400
C957        C  0.12249855  0.08832680  0.70750716     0.80500
N958        N  0.15025795  0.06138562  0.69035234    -0.77800
C959        C  0.19323072  0.07608944  0.68576607     0.82900
N960        N  0.20831109  0.12033824  0.69682213    -0.77800
C961        C  0.18074297  0.14983729  0.71283702     0.83000
N962        N  0.13807156  0.13296228  0.71922296    -0.79500
C963        C  0.12244916  0.08843380  0.53301600     0.80500
N964        N  0.15022761  0.06147942  0.55014401    -0.77800
C965        C  0.19321152  0.07616885  0.55469191     0.82900
N966        N  0.20828521  0.12041444  0.54362502    -0.77800
C967        C  0.18069980  0.14992226  0.52763436     0.83000
N968        N  0.13801632  0.13306170  0.52128559    -0.79500
N969        N  0.23018248  0.02763011  0.62020924    -0.36300
N970        N  0.23933075  0.95000423  0.57723378    -0.56900
N971        N  0.24709471  0.86942957  0.62018151    -0.36300
N972        N  0.23934523  0.94994779  0.66315494    -0.56900
C973        C  0.23347843  0.05810392  0.59772273     0.27200
C974        C  0.23347709  0.05807520  0.64270639     0.27200
C975        C  0.24682444  0.83927129  0.59665219     0.27200
C976        C  0.24685485  0.83924109  0.64370032     0.27200
C977        C  0.22957459  0.99150746  0.56116458     0.35900
C978        C  0.24156847  0.90927481  0.55971217     0.35900
C979        C  0.22958479  0.99143177  0.67924168     0.35900
C980        C  0.24161373  0.90920298  0.68066399     0.35900
C981        C  0.23985289  0.10861300  0.60585544    -0.21600
C982        C  0.23985227  0.10859473  0.63459062    -0.21600
C983        C  0.24722966  0.78855194  0.60550417    -0.21600
C984        C  0.24724901  0.78853297  0.63482773    -0.21600
C985        C  0.22683830  0.97774854  0.53341813    -0.22700
C986        C  0.23499270  0.92635752  0.53239744    -0.22700
C987        C  0.22687121  0.97764577  0.70698627    -0.22700
C988        C  0.23504955  0.92625866  0.70798643    -0.22700
C989        C  0.22300095  0.04213276  0.57077878    -0.18000
C990        C  0.22300199  0.04206752  0.66964772    -0.18000
C991        C  0.24616481  0.85648312  0.67274927    -0.18000
C992        C  0.24609980  0.85654657  0.56761142    -0.18000
H993        H  0.24227175  0.14217145  0.59260882     0.14900
H994        H  0.24227327  0.14213720  0.64784835     0.14900
H995        H  0.24726953  0.75487643  0.59223828     0.14900
H996        H  0.24730505  0.75484003  0.64807992     0.14900
H997        H  0.22059228  0.00249762  0.51576309     0.13200
H998        H  0.23538728  0.90448652  0.51346284     0.13200
H999        H  0.22062594  0.00237428  0.72465467     0.13200
H1000       H  0.23547037  0.90437251  0.72691414     0.13200
H1001       H  0.21996872  0.98963482  0.62020413     0.26400
H1002       H  0.24792538  0.90889189  0.62018702     0.26400
C1003       C  0.90139099  0.09306487  0.50418423    -0.10600
C1004       C  0.87758048  0.06155650  0.98611275    -0.04500
C1005       C  0.89580563  0.01719335  0.97449316    -0.10600
C1006       C  0.94225068  0.00684317  0.97818557     0.10400
C1007       C  0.96856549  0.04090499  0.99501854    -0.02400
C1008       C  0.94782313  0.08355004  0.50868335     0.10200
C1009       C  0.97409647  0.11566671  0.52580591    -0.12400
C1010       C  0.02063152  0.10752792  0.52869340    -0.12400
C1011       C  0.04183868  0.06610443  0.51523064     0.10200
C1012       C  0.01542624  0.03180233  0.99860248    -0.02400
C1013       C  0.96334618  0.96511491  0.96495322    -0.12500
C1014       C  0.00981768  0.95687300  0.96792448    -0.12500
C1015       C  0.03615813  0.98927742  0.98484081     0.10400
C1016       C  0.08276442  0.98037500  0.98880137    -0.10600
C1017       C  0.10684553  0.01223632  0.00655487    -0.04500
C1018       C  0.08854724  0.05645166  0.51834371    -0.10600
H1019       H  0.95888524  0.14811466  0.53639099     0.07600
H1020       H  0.03994132  0.13356773  0.54171371     0.07600
H1021       H  0.94405754  0.93909670  0.95190704     0.07800
H1022       H  0.02500668  0.92437041  0.95737388     0.07800
H1023       H  0.84167693  0.06878085  0.98370061     0.04300
H1024       H  0.14289170  0.00552768  0.00846568     0.04300
O1025       O  0.77724177  0.75218976  0.77445520    -0.71500
O1026       O  0.76891811  0.82036739  0.70290201    -0.71700
O1027       O  0.80430366  0.84403307  0.75352836    -0.71600
O1028       O  0.74110886  0.72892913  0.72327907    -0.71600
O1029       O  0.67705516  0.76117455  0.73688897    -0.71600
O1030       O  0.73960192  0.87547000  0.76649219    -0.71600
O1031       O  0.70456154  0.85268799  0.71557364    -0.71500
O1032       O  0.71309227  0.78456350  0.78747675    -0.71700
V1033       V  0.77158254  0.78673595  0.73884156     1.35200
V1034       V  0.70989400  0.81798321  0.75124158     1.35200
C1035       C  0.74656935  0.75586188  0.79311600     0.77700
C1036       C  0.73599060  0.84973626  0.69734235     0.77800
C1037       C  0.78208743  0.87962246  0.76509382     0.77600
C1038       C  0.69847495  0.72513876  0.72532511     0.77600
O1039       O  0.24148526  0.84587629  0.76767144    -0.71500
O1040       O  0.30495155  0.73123692  0.73657700    -0.71700
O1041       O  0.27732527  0.82358699  0.71628962    -0.71600
O1042       O  0.26987035  0.75407673  0.78752408    -0.71600
O1043       O  0.20513704  0.72238902  0.77515724    -0.71600
O1044       O  0.21367412  0.79023500  0.70309470    -0.71600
O1045       O  0.24009703  0.69935530  0.72429933    -0.71500
O1046       O  0.17764772  0.81373928  0.75362484    -0.71700
V1047       V  0.27212677  0.78831060  0.75172757     1.35200
V1048       V  0.21047301  0.75693279  0.73940776     1.35200
C1049       C  0.19886130  0.84967838  0.76540146     0.77700
C1050       C  0.28261790  0.69543055  0.72525117     0.77800
C1051       C  0.24677729  0.81960272  0.69757750     0.77600
C1052       C  0.23678703  0.72502154  0.79325397     0.77600
O1053       O  0.17753399  0.81382806  0.98675634    -0.71500
O1054       O  0.23993436  0.69944761  0.51607821    -0.71700
O1055       O  0.21355555  0.79034226  0.53727170    -0.71600
O1056       O  0.20501581  0.72247963  0.96521470    -0.71600
O1057       O  0.26975684  0.75415638  0.95283584    -0.71600
O1058       O  0.27722601  0.82365244  0.52406102    -0.71600
O1059       O  0.30480827  0.73127832  0.50378409    -0.71500
O1060       O  0.24137779  0.84596198  0.97269952    -0.71700
V1061       V  0.21034515  0.75702647  0.50096453     1.35200
V1062       V  0.27201162  0.78837826  0.98863137     1.35200
C1063       C  0.19875197  0.84977187  0.97498690     0.77700
C1064       C  0.28245119  0.69549890  0.51513021     0.77800
C1065       C  0.24667664  0.81968562  0.54277914     0.77600
C1066       C  0.23667358  0.72510773  0.94711233     0.77600
O1067       O  0.76882473  0.82026395  0.53811166    -0.71500
O1068       O  0.77711972  0.75209916  0.96655767    -0.71700
O1069       O  0.80418290  0.84393962  0.98746352    -0.71600
O1070       O  0.74097012  0.72882445  0.51773485    -0.71600
O1071       O  0.67692610  0.76109531  0.50414469    -0.71600
O1072       O  0.73947329  0.87537748  0.97453505    -0.71600
O1073       O  0.71297287  0.78447895  0.95355395    -0.71500
O1074       O  0.70446916  0.85260233  0.52547185    -0.71700
V1075       V  0.77146339  0.78663777  0.50216927     1.35200
V1076       V  0.70977636  0.81789699  0.98979422     1.35200
C1077       C  0.73591320  0.84965002  0.54368712     0.77700
C1078       C  0.74645365  0.75577861  0.94790492     0.77800
C1079       C  0.78195714  0.87952517  0.97590324     0.77600
C1080       C  0.69833385  0.72503972  0.51568840     0.77600
O1081       O  0.27830712  0.22247116  0.96511344    -0.71500
O1082       O  0.27038200  0.29062968  0.53710348    -0.71700
O1083       O  0.24375408  0.19983613  0.51610872    -0.71600
O1084       O  0.30616364  0.31388103  0.98642280    -0.71600
O1085       O  0.24227009  0.34636199  0.97272143    -0.71600
O1086       O  0.17887952  0.23150522  0.50370585    -0.71600
O1087       O  0.20647850  0.32364676  0.52412581    -0.71500
O1088       O  0.21374671  0.25464837  0.95276805    -0.71700
V1089       V  0.27332366  0.25722814  0.50081575     1.35200
V1090       V  0.21163462  0.28867503  0.98861106     1.35200
C1091       C  0.24660892  0.22527867  0.94705552     0.77700
C1092       C  0.23711653  0.31965561  0.54277625     0.77800
C1093       C  0.20125424  0.19583120  0.51512879     0.77600
C1094       C  0.28494467  0.34998393  0.97480386     0.77600
O1095       O  0.80717381  0.26125546  0.73683074    -0.71500
O1096       O  0.74460203  0.37562556  0.76642051    -0.71700
O1097       O  0.77127506  0.28483970  0.78744634    -0.71600
O1098       O  0.77956968  0.35268698  0.71546999    -0.71600
O1099       O  0.71506993  0.32051429  0.70297826    -0.71600
O1100       O  0.70724216  0.25209111  0.77449792    -0.71600
O1101       O  0.67986029  0.34398036  0.75371473    -0.71500
O1102       O  0.74312003  0.22905746  0.72321007    -0.71700
V1103       V  0.77433421  0.31811389  0.75117761     1.35200
V1104       V  0.71263068  0.28677308  0.73889853     1.35200
C1105       C  0.78575562  0.22524069  0.72523887     0.77700
C1106       C  0.70208857  0.37967715  0.76517117     0.77800
C1107       C  0.73794315  0.25594719  0.79312295     0.77600
C1108       C  0.74804186  0.34976670  0.69731573     0.77600
O1109       O  0.20657335  0.32360320  0.71632190    -0.71500
O1110       O  0.21377182  0.25455978  0.78766859    -0.71700
O1111       O  0.24232710  0.34627326  0.76773389    -0.71600
O1112       O  0.17893300  0.23145283  0.73673239    -0.71600
O1113       O  0.24381017  0.19974075  0.72434939    -0.71600
O1114       O  0.30622098  0.31380874  0.75400339    -0.71600
O1115       O  0.27835952  0.22242197  0.77532866    -0.71500
O1116       O  0.27045397  0.29052863  0.70332743    -0.71700
V1117       V  0.21169188  0.28860698  0.75183211     1.35200
V1118       V  0.27338252  0.25714901  0.73962216     1.35200
C1119       C  0.23720982  0.31958590  0.69766254     0.77700
C1120       C  0.24664434  0.22521243  0.79338324     0.77800
C1121       C  0.28500189  0.34989506  0.76564500     0.77600
C1122       C  0.20130706  0.19575232  0.72532764     0.77600
O1123       O  0.71498135  0.32048864  0.53800817    -0.71500
O1124       O  0.70723209  0.25202753  0.96650696    -0.71700
O1125       O  0.74306985  0.22901894  0.51779451    -0.71600
O1126       O  0.67983174  0.34392219  0.98725349    -0.71600
O1127       O  0.74459190  0.37556562  0.97456360    -0.71600
O1128       O  0.80713040  0.26121237  0.50416471    -0.71600
O1129       O  0.77127008  0.28478175  0.95355211    -0.71500
O1130       O  0.77949905  0.35265042  0.52552383    -0.71700
V1131       V  0.71258646  0.28672777  0.50209463     1.35200
V1132       V  0.77430169  0.31806525  0.98981720     1.35200
C1133       C  0.74795154  0.34973334  0.54367481     0.77700
C1134       C  0.73794145  0.25588668  0.94788117     0.77800
C1135       C  0.78570673  0.22519397  0.51575331     0.77600
C1136       C  0.70207696  0.37960551  0.97578845     0.77600
loop_ 
_geom_bond_atom_site_label_1 
_geom_bond_atom_site_label_2 
_geom_bond_distance 
_geom_bond_site_symmetry_2 
_ccdc_geom_bond_type 
C1            N2   1.356       .  A
C1            N6   1.370       .  A
C1           C95   1.480       .  S
N2            C3   1.346       .  A
C3            N4   1.346       .  A
C3           C34   1.467       .  S
N4            C5   1.356       .  A
C5            N6   1.371       .  A
C5          C538   1.469       .  S
C7            N8   1.355       .  A
C7           N12   1.370       .  A
C7          C207   1.480       .  S
N8            C9   1.346       .  A
C9           N10   1.346       .  A
C9           C33   1.467       .  S
N10          C11   1.356       .  A
C11          N12   1.371       .  A
C11         C568   1.469       .  S
N13          C18   1.338       .  A
N13          C17   1.338       .  A
N13          H45   1.035       .  S
N14          C21   1.357       .  A
N14          C22   1.353       .  A
N15          C20   1.370       .  A
N15          C19   1.370       .  A
N15          H46   1.031       .  S
N16          C23   1.357       .  A
N16          C24   1.353       .  A
C17          C25   1.387       .  A
C17          C33   1.386       .  A
C18          C34   1.386       .  A
C18          C26   1.387       .  A
C19          C27   1.389       .  A
C19          C36   1.455       .  A
C20          C35   1.455       .  A
C20          C28   1.389       .  A
C21          C33   1.411       .  A
C21          C29   1.372       .  A
C22          C36   1.432       .  A
C22          C30   1.390       .  A
C23          C31   1.372       .  A
C23          C34   1.411       .  A
C24          C32   1.390       .  A
C24          C35   1.432       .  A
C25          C26   1.368       .  A
C25          H37   1.081       .  S
C26          H38   1.081       .  S
C27          C28   1.397       .  A
C27          H39   1.082       .  S
C28          H40   1.082       .  S
C29          C30   1.362       .  A
C29          H41   1.076       .  S
C30          H42   1.067       .  S
C31          C32   1.362       .  A
C31          H43   1.076       .  S
C32          H44   1.067       .  S
C35         C467   1.524       .  S
C36         C510   1.523       .  S
C47          N48   1.354       .  A
C47          N52   1.367       .  A
C47          C93   1.472       .  S
N48          C49   1.349       .  A
C49          N50   1.353       .  A
C49          C79   1.466       .  S
N50          C51   1.357       .  A
C51          N52   1.369       .  A
C51         C470   1.473       .  S
C53          N54   1.354       .  A
C53          N58   1.367       .  A
C53         C209   1.472       .  S
N54          C55   1.349       .  A
C55          N56   1.353       .  A
C55          C80   1.466       .  S
N56          C57   1.357       .  A
C57          N58   1.369       .  A
C57         C512   1.473       .  S
N59          C64   1.345       .  A
N59          C63   1.345       .  A
N59          H91   1.038       .  S
N60          C67   1.358       .  A
N60          C68   1.356       .  A
N61          C66   1.368       .  A
N61          C65   1.368       .  A
N61          H92   1.035       .  S
N62          C69   1.358       .  A
N62          C70   1.356       .  A
C63          C71   1.389       .  A
C63          C79   1.394       .  A
C64          C80   1.394       .  A
C64          C72   1.389       .  A
C65          C73   1.388       .  A
C65          C82   1.448       .  A
C66          C81   1.448       .  A
C66          C74   1.388       .  A
C67          C79   1.412       .  A
C67          C75   1.376       .  A
C68          C82   1.429       .  A
C68          C76   1.392       .  A
C69          C77   1.376       .  A
C69          C80   1.412       .  A
C70          C78   1.392       .  A
C70          C81   1.429       .  A
C71          C72   1.356       .  A
C71          H83   1.083       .  S
C72          H84   1.083       .  S
C73          C74   1.394       .  A
C73          H85   1.082       .  S
C74          H86   1.082       .  S
C75          C76   1.366       .  A
C75          H87   1.077       .  S
C76          H88   1.075       .  S
C77          C78   1.366       .  A
C77          H89   1.077       .  S
C78          H90   1.075       .  S
C81         C565   1.519       .  S
C82         C540   1.519       .  S
C93          C94   1.384       .  A
C93          C98   1.412       .  A
C94          C95   1.392       .  A
C94         H113   1.085       .  S
C95          C96   1.413       .  A
C96          C97   1.429       .  A
C96         C103   1.404       .  A
C97          C98   1.427       .  A
C97         C102   1.418       .  A
C98          C99   1.405       .  A
C99         C100   1.400       .  A
C99         H109   1.083       .  S
C100        C101   1.404       .  A
C100        H110   1.083       .  S
C101        C102   1.429       .  A
C101        C108   1.413       .  A
C102        C105   1.427       .  A
C103        C104   1.399       .  A
C103        H111   1.083       .  S
C104        C105   1.405       .  A
C104        H112   1.083       .  S
C105        C106   1.412       .  A
C106        C161   1.472       .  S
C106        C107   1.384       .  A
C107        C108   1.393       .  A
C107        H114   1.084       .  S
C108        C115   1.482       .  S
C115        N116   1.372       .  A
C115        N120   1.355       .  A
N116        C117   1.372       .  A
C117        N118   1.356       .  A
C117        C482   1.470       .  S
N118        C119   1.345       .  A
C119        N120   1.346       .  A
C119        C148   1.467       .  S
C121        N122   1.372       .  A
C121        N126   1.355       .  A
C121        C220   1.482       .  S
N122        C123   1.372       .  A
C123        N124   1.356       .  A
C123        C496   1.470       .  S
N124        C125   1.345       .  A
C125        N126   1.346       .  A
C125        C147   1.467       .  S
N127        C132   1.338       .  A
N127        C131   1.338       .  A
N127        H159   1.036       .  S
N128        C135   1.357       .  A
N128        C136   1.352       .  A
N129        C134   1.370       .  A
N129        C133   1.370       .  A
N129        H160   1.030       .  S
N130        C137   1.357       .  A
N130        C138   1.352       .  A
C131        C139   1.386       .  A
C131        C147   1.385       .  A
C132        C148   1.385       .  A
C132        C140   1.386       .  A
C133        C141   1.389       .  A
C133        C150   1.456       .  A
C134        C149   1.456       .  A
C134        C142   1.389       .  A
C135        C147   1.411       .  A
C135        C143   1.372       .  A
C136        C150   1.432       .  A
C136        C144   1.389       .  A
C137        C145   1.372       .  A
C137        C148   1.411       .  A
C138        C146   1.389       .  A
C138        C149   1.432       .  A
C139        C140   1.369       .  A
C139        H151   1.082       .  S
C140        H152   1.082       .  S
C141        C142   1.397       .  A
C141        H153   1.082       .  S
C142        H154   1.082       .  S
C143        C144   1.362       .  A
C143        H155   1.077       .  S
C144        H156   1.067       .  S
C145        C146   1.362       .  A
C145        H157   1.077       .  S
C146        H158   1.067       .  S
C149        C551   1.524       .  S
C150        C524   1.524       .  S
C161        N162   1.366       .  A
C161        N166   1.353       .  A
N162        C163   1.369       .  A
C163        N164   1.359       .  A
C163        C553   1.475       .  S
N164        C165   1.355       .  A
C165        N166   1.349       .  A
C165        C194   1.467       .  S
C167        N168   1.353       .  A
C167        N172   1.366       .  A
C167        C222   1.472       .  S
N168        C169   1.349       .  A
C169        N170   1.355       .  A
C169        C193   1.467       .  S
N170        C171   1.358       .  A
C171        N172   1.369       .  A
C171        C526   1.475       .  S
N173        C178   1.344       .  A
N173        C177   1.344       .  A
N173        H205   1.038       .  S
N174        C181   1.358       .  A
N174        C182   1.356       .  A
N175        C180   1.368       .  A
N175        C179   1.368       .  A
N175        H206   1.037       .  S
N176        C183   1.358       .  A
N176        C184   1.356       .  A
C177        C185   1.389       .  A
C177        C193   1.394       .  A
C178        C194   1.394       .  A
C178        C186   1.389       .  A
C179        C187   1.388       .  A
C179        C196   1.449       .  A
C180        C195   1.449       .  A
C180        C188   1.388       .  A
C181        C193   1.413       .  A
C181        C189   1.377       .  A
C182        C196   1.429       .  A
C182        C190   1.392       .  A
C183        C191   1.377       .  A
C183        C194   1.413       .  A
C184        C192   1.392       .  A
C184        C195   1.429       .  A
C185        C186   1.359       .  A
C185        H197   1.083       .  S
C186        H198   1.083       .  S
C187        C188   1.395       .  A
C187        H199   1.082       .  S
C188        H200   1.082       .  S
C189        C190   1.369       .  A
C189        H201   1.078       .  S
C190        H202   1.077       .  S
C191        C192   1.369       .  A
C191        H203   1.078       .  S
C192        H204   1.077       .  S
C195        C484   1.521       .  S
C196        C498   1.521       .  S
C207        C208   1.392       .  A
C207        C212   1.413       .  A
C208        C777   1.384       .  A
C208        H227   1.085       .  S
C209        C210   1.413       .  A
C209        C776   1.384   1_554  A
C210        C217   1.405       .  A
C210        C779   1.427   1_554  A
C211        C212   1.429       .  A
C211        C216   1.418       .  A
C211        C778   1.427       .  A
C212        C213   1.404       .  A
C213        C214   1.399       .  A
C213        H223   1.083       .  S
C214        C215   1.404       .  A
C214        H224   1.083       .  S
C215        C216   1.427       .  A
C215        C222   1.412       .  A
C216        C787   1.429       .  A
C217        C218   1.400       .  A
C217        H225   1.083       .  S
C218        C219   1.404       .  A
C218        H226   1.083       .  S
C219        C220   1.413       .  A
C219        C784   1.429   1_554  A
C220        C789   1.393       .  A
C221        C222   1.384       .  A
C221        C788   1.393       .  A
C221        H228   1.084       .  S
C229        N230   1.355   1_565  A
C229        N234   1.370       .  A
C229        C321   1.479   1_565  S
N230        C231   1.346   1_545  A
C231        N232   1.346       .  A
C231        C262   1.467   1_565  S
N232        C233   1.356       .  A
C233        N234   1.370       .  A
C233        C469   1.467       .  S
C235        N236   1.355   1_565  A
C235        N240   1.370       .  A
C235        C437   1.479   1_565  S
N236        C237   1.346   1_545  A
C237        N238   1.346       .  A
C237        C261   1.467   1_565  S
N238        C239   1.356       .  A
C239        N240   1.370       .  A
C239        C511   1.468       .  S
N241        C246   1.338       .  A
N241        C245   1.338       .  A
N241        H273   1.035       .  S
N242        C249   1.357       .  A
N242        C250   1.353       .  A
N243        C248   1.369       .  A
N243        C247   1.369       .  A
N243        H274   1.030       .  S
N244        C251   1.357       .  A
N244        C252   1.353       .  A
C245        C253   1.387   1_545  A
C245        C261   1.386       .  A
C246        C262   1.386       .  A
C246        C254   1.387   1_545  A
C247        C255   1.389       .  A
C247        C264   1.455       .  A
C248        C263   1.455       .  A
C248        C256   1.389       .  A
C249        C261   1.412       .  A
C249        C257   1.373       .  A
C250        C264   1.432       .  A
C250        C258   1.389       .  A
C251        C259   1.373       .  A
C251        C262   1.412       .  A
C252        C260   1.389       .  A
C252        C263   1.432       .  A
C253        C254   1.367       .  A
C253        H265   1.081       .  S
C254        H266   1.081       .  S
C255        C256   1.397       .  A
C255        H267   1.082       .  S
C256        H268   1.082       .  S
C257        C258   1.363       .  A
C257        H269   1.077       .  S
C258        H270   1.067       .  S
C259        C260   1.363       .  A
C259        H271   1.077       .  S
C260        H272   1.067       .  S
C263        C539   1.523       .  S
C264        C566   1.523       .  S
C275        N276   1.353       .  A
C275        N280   1.367       .  A
C275        C435   1.472       .  S
N276        C277   1.348       .  A
C277        N278   1.353       .  A
C277        C307   1.466       .  S
N278        C279   1.357       .  A
C279        N280   1.369       .  A
C279        C567   1.474       .  S
C281        N282   1.353       .  A
C281        N286   1.367       .  A
C281        C323   1.472       .  S
N282        C283   1.348       .  A
C283        N284   1.353       .  A
C283        C308   1.466       .  S
N284        C285   1.357       .  A
C285        N286   1.369       .  A
C285        C537   1.474       .  S
N287        C292   1.345       .  A
N287        C291   1.345       .  A
N287        H319   1.038       .  S
N288        C295   1.358   1_565  A
N288        C296   1.356       .  A
N289        C294   1.368       .  A
N289        C293   1.368       .  A
N289        H320   1.035       .  S
N290        C297   1.358   1_565  A
N290        C298   1.356       .  A
C291        C299   1.389       .  A
C291        C307   1.394       .  A
C292        C308   1.394       .  A
C292        C300   1.389       .  A
C293        C301   1.388       .  A
C293        C310   1.448       .  A
C294        C309   1.448       .  A
C294        C302   1.388       .  A
C295        C307   1.412       .  A
C295        C303   1.376       .  A
C296        C310   1.429       .  A
C296        C304   1.392       .  A
C297        C305   1.376       .  A
C297        C308   1.412       .  A
C298        C306   1.392       .  A
C298        C309   1.429       .  A
C299        C300   1.356       .  A
C299        H311   1.083       .  S
C300        H312   1.083       .  S
C301        C302   1.394       .  A
C301        H313   1.082       .  S
C302        H314   1.082       .  S
C303        C304   1.367   1_545  A
C303        H315   1.077       .  S
C304        H316   1.076       .  S
C305        C306   1.367   1_545  A
C305        H317   1.077       .  S
C306        H318   1.076       .  S
C309        C468   1.519       .  S
C310        C509   1.519       .  S
C321        C322   1.392       .  A
C321        C326   1.411       .  A
C322        C323   1.383       .  A
C322        H341   1.085       .  S
C323        C324   1.412       .  A
C324        C325   1.428       .  A
C324        C331   1.404       .  A
C325        C326   1.428       .  A
C325        C330   1.417   1_655  A
C326        C327   1.404   1_545  A
C327        C328   1.399   1_655  A
C327        H337   1.083       .  S
C328        C329   1.404       .  A
C328        H338   1.083       .  S
C329        C330   1.427   1_565  A
C329        C336   1.411       .  A
C330        C333   1.428       .  A
C331        C332   1.400   1_655  A
C331        H339   1.083       .  S
C332        C333   1.405       .  A
C332        H340   1.083       .  S
C333        C334   1.412       .  A
C334        C389   1.480       .  S
C334        C335   1.393       .  A
C335        C336   1.384   1_545  A
C335        H342   1.084       .  S
C336        C343   1.471       .  S
C343        N344   1.365       .  A
C343        N348   1.353       .  A
N344        C345   1.368       .  A
C345        N346   1.358       .  A
C345        C481   1.474       .  S
N346        C347   1.355       .  A
C347        N348   1.348       .  A
C347        C375   1.468   1_565  S
C349        N350   1.353       .  A
C349        N354   1.365       .  A
C349        C448   1.471       .  S
N350        C351   1.348       .  A
C351        N352   1.355       .  A
C351        C376   1.467   1_565  S
N352        C353   1.358       .  A
C353        N354   1.368       .  A
C353        C495   1.474       .  S
N355        C360   1.344   1_545  A
N355        C359   1.344   1_545  A
N355        H387   1.038       .  S
N356        C363   1.358       .  A
N356        C364   1.356       .  A
N357        C362   1.368       .  A
N357        C361   1.368       .  A
N357        H388   1.036       .  S
N358        C365   1.358       .  A
N358        C366   1.356       .  A
C359        C367   1.389       .  A
C359        C375   1.395   1_565  A
C360        C376   1.395   1_565  A
C360        C368   1.389       .  A
C361        C369   1.388       .  A
C361        C378   1.448       .  A
C362        C377   1.448       .  A
C362        C370   1.388       .  A
C363        C375   1.414       .  A
C363        C371   1.377       .  A
C364        C378   1.429       .  A
C364        C372   1.392       .  A
C365        C373   1.377       .  A
C365        C376   1.414       .  A
C366        C374   1.392       .  A
C366        C377   1.429       .  A
C367        C368   1.359       .  A
C367        H379   1.083       .  S
C368        H380   1.083       .  S
C369        C370   1.394       .  A
C369        H381   1.082       .  S
C370        H382   1.082       .  S
C371        C372   1.368       .  A
C371        H383   1.077       .  S
C372        H384   1.077       .  S
C373        C374   1.368       .  A
C373        H385   1.077       .  S
C374        H386   1.076       .  S
C377        C523   1.520       .  S
C378        C552   1.520       .  S
C389        N390   1.355       .  A
C389        N394   1.371       .  A
N390        C391   1.346       .  A
C391        N392   1.345       .  A
C391        C422   1.467       .  S
N392        C393   1.356       .  A
C393        N394   1.371       .  A
C393        C554   1.469       .  S
C395        N396   1.355       .  A
C395        N400   1.371       .  A
C395        C450   1.480       .  S
N396        C397   1.346       .  A
C397        N398   1.345       .  A
C397        C421   1.467       .  S
N398        C399   1.356       .  A
C399        N400   1.371       .  A
C399        C525   1.469       .  S
N401        C406   1.338       .  A
N401        C405   1.338       .  A
N401        H433   1.036   1_545  S
N402        C409   1.357       .  A
N402        C410   1.353       .  A
N403        C408   1.370       .  A
N403        C407   1.370       .  A
N403        H434   1.030       .  S
N404        C411   1.357       .  A
N404        C412   1.353       .  A
C405        C413   1.386       .  A
C405        C421   1.385       .  A
C406        C422   1.385       .  A
C406        C414   1.386       .  A
C407        C415   1.389       .  A
C407        C424   1.455       .  A
C408        C423   1.456       .  A
C408        C416   1.389       .  A
C409        C421   1.411   1_565  A
C409        C417   1.372       .  A
C410        C424   1.432       .  A
C410        C418   1.389       .  A
C411        C419   1.372       .  A
C411        C422   1.411   1_565  A
C412        C420   1.389       .  A
C412        C423   1.432       .  A
C413        C414   1.369       .  A
C413        H425   1.082       .  S
C414        H426   1.082       .  S
C415        C416   1.397       .  A
C415        H427   1.082       .  S
C416        H428   1.082       .  S
C417        C418   1.363       .  A
C417        H429   1.076   1_565  S
C418        H430   1.068       .  S
C419        C420   1.363       .  A
C419        H431   1.077   1_565  S
C420        H432   1.068       .  S
C423        C483   1.525       .  S
C424        C497   1.525       .  S
C435        C440   1.412       .  A
C435       C1004   1.383   1_554  A
C436        C437   1.392       .  A
C436       C1003   1.383       .  A
C436        H455   1.085       .  S
C437        C438   1.411       .  A
C438        C439   1.428       .  A
C438        C445   1.404   1_545  A
C439        C444   1.417   1_655  A
C439       C1008   1.428       .  A
C440        C441   1.404       .  A
C440       C1007   1.428   1_554  A
C441        C442   1.400   1_655  A
C441        H451   1.083       .  S
C442        C443   1.405       .  A
C442        H452   1.083       .  S
C443        C450   1.412       .  A
C443       C1012   1.428   1_554  A
C444        C447   1.427   1_545  A
C444       C1011   1.428       .  A
C445        C446   1.399   1_655  A
C445        H453   1.083       .  S
C446        C447   1.404       .  A
C446        H454   1.083       .  S
C447        C448   1.411       .  A
C448        C449   1.384   1_565  A
C449       C1018   1.392       .  A
C449        H456   1.084       .  S
C450       C1017   1.392       .  A
O457        V465   1.929       .  S
O457        C467   1.274       .  A
O458        V465   1.926       .  S
O458        C468   1.267       .  A
O459        V465   1.913       .  S
O459        C469   1.264       .  A
O460        V465   1.907       .  S
O460        C470   1.269       .  A
O461        V466   1.899       .  S
O461        C470   1.260       .  A
O462        V466   1.884       .  S
O462        C469   1.263       .  A
O463        V466   1.932       .  S
O463        C468   1.275       .  A
O464        V466   1.937       .  S
O464        C467   1.270       .  A
V465        V466   2.084       .  T
O471        V479   1.911       .  S
O471        C481   1.269       .  A
O472        V479   1.919       .  S
O472        C482   1.265       .  A
O473        V479   1.929       .  S
O473        C483   1.274       .  A
O474        V479   1.926       .  S
O474        C484   1.268       .  A
O475        V480   1.934       .  S
O475        C484   1.275       .  A
O476        V480   1.938       .  S
O476        C483   1.271       .  A
O477        V480   1.882       .  S
O477        C482   1.263       .  A
O478        V480   1.897       .  S
O478        C481   1.260       .  A
V479        V480   2.084       .  T
O485       V1061   1.896       .  S
O485        C495   1.260       .  A
O486        V493   1.882       .  S
O486        C496   1.263       .  A
O487        V493   1.938       .  S
O487        C497   1.271       .  A
O488       V1061   1.934       .  S
O488        C498   1.275       .  A
O489        V494   1.926       .  S
O489        C498   1.268       .  A
O490       V1062   1.929   1_554  S
O490        C497   1.274       .  A
O491       V1062   1.919   1_554  S
O491        C496   1.265       .  A
O492        V494   1.912       .  S
O492        C495   1.270       .  A
V493       O1053   1.896   1_554  S
V493       O1056   1.934   1_554  S
V493       V1062   2.084   1_554  T
V494       O1058   1.929       .  S
V494       O1059   1.919       .  S
V494       V1061   2.084       .  T
O499        V507   1.926       .  S
O499        C509   1.267       .  A
O500       V1075   1.928       .  S
O500        C510   1.274       .  A
O501       V1075   1.914       .  S
O501        C511   1.264       .  A
O502        V507   1.907       .  S
O502        C512   1.269       .  A
O503       V1076   1.899   1_554  S
O503        C512   1.260       .  A
O504        V508   1.884       .  S
O504        C511   1.263       .  A
O505        V508   1.937       .  S
O505        C510   1.270       .  A
O506       V1076   1.932   1_554  S
O506        C509   1.275       .  A
V507       O1068   1.928   1_554  S
V507       O1069   1.914   1_554  S
V507       V1076   2.084   1_554  T
V508       O1071   1.899       .  S
V508       O1074   1.932       .  S
V508       V1075   2.084       .  T
O513       V1089   1.933       .  S
O513        C523   1.275       .  A
O514        V521   1.938       .  S
O514        C524   1.271       .  A
O515        V521   1.881       .  S
O515        C525   1.262       .  A
O516       V1089   1.897       .  S
O516        C526   1.260       .  A
O517        V522   1.913       .  S
O517        C526   1.270       .  A
O518       V1090   1.918   1_554  S
O518        C525   1.265       .  A
O519       V1090   1.929   1_554  S
O519        C524   1.274       .  A
O520        V522   1.926       .  S
O520        C523   1.267       .  A
V521       O1081   1.933   1_554  S
V521       O1084   1.897   1_554  S
V521       V1090   2.084   1_554  T
V522       O1086   1.918       .  S
V522       O1087   1.929       .  S
V522       V1089   2.084       .  T
O527        V535   1.900       .  S
O527        C537   1.261       .  A
O528        V535   1.885       .  S
O528        C538   1.264       .  A
O529        V535   1.936       .  S
O529        C539   1.270       .  A
O530        V535   1.932       .  S
O530        C540   1.275       .  A
O531        V536   1.926       .  S
O531        C540   1.267       .  A
O532        V536   1.929       .  S
O532        C539   1.274       .  A
O533        V536   1.914       .  S
O533        C538   1.264       .  A
O534        V536   1.908       .  S
O534        C537   1.269       .  A
V535        V536   2.084       .  T
O541        V549   1.929       .  S
O541        C551   1.274       .  A
O542        V549   1.926       .  S
O542        C552   1.267       .  A
O543        V549   1.913       .  S
O543        C553   1.270       .  A
O544        V549   1.918       .  S
O544        C554   1.265       .  A
O545        V550   1.881       .  S
O545        C554   1.263       .  A
O546        V550   1.897       .  S
O546        C553   1.260       .  A
O547        V550   1.933       .  S
O547        C552   1.275       .  A
O548        V550   1.938       .  S
O548        C551   1.271       .  A
V549        V550   2.084       .  T
O555        V563   1.926       .  S
O555        C565   1.267       .  A
O556       V1131   1.929       .  S
O556        C566   1.274       .  A
O557        V563   1.908       .  S
O557        C567   1.269       .  A
O558       V1131   1.915       .  S
O558        C568   1.264       .  A
O559        V564   1.884       .  S
O559        C568   1.263       .  A
O560       V1132   1.900   1_554  S
O560        C567   1.261       .  A
O561        V564   1.936       .  S
O561        C566   1.270       .  A
O562       V1132   1.932   1_554  S
O562        C565   1.275       .  A
V563       O1124   1.929   1_554  S
V563       O1126   1.915   1_554  S
V563       V1132   2.084   1_554  T
V564       O1128   1.900       .  S
V564       O1130   1.932       .  S
V564       V1131   2.084       .  T
C569        N570   1.356       .  A
C569        N574   1.370       .  A
C569        C663   1.480       .  S
N570        C571   1.346       .  A
C571        N572   1.346       .  A
C571        C602   1.467       .  S
N572        C573   1.356       .  A
C573        N574   1.371       .  A
C573       C1106   1.469       .  S
C575        N576   1.355       .  A
C575        N580   1.370       .  A
C575        C775   1.480       .  S
N576        C577   1.346       .  A
C577        N578   1.346       .  A
C577        C601   1.467       .  S
N578        C579   1.356       .  A
C579        N580   1.371       .  A
C579       C1136   1.469       .  S
N581        C586   1.338       .  A
N581        C585   1.338       .  A
N581        H613   1.035       .  S
N582        C589   1.357       .  A
N582        C590   1.353       .  A
N583        C588   1.370       .  A
N583        C587   1.370       .  A
N583        H614   1.031       .  S
N584        C591   1.357       .  A
N584        C592   1.353       .  A
C585        C593   1.387       .  A
C585        C601   1.386       .  A
C586        C602   1.386       .  A
C586        C594   1.387       .  A
C587        C595   1.389       .  A
C587        C604   1.455       .  A
C588        C603   1.455       .  A
C588        C596   1.389       .  A
C589        C601   1.411       .  A
C589        C597   1.372       .  A
C590        C604   1.432       .  A
C590        C598   1.390       .  A
C591        C599   1.372       .  A
C591        C602   1.411       .  A
C592        C600   1.390       .  A
C592        C603   1.432       .  A
C593        C594   1.368       .  A
C593        H605   1.081       .  S
C594        H606   1.081       .  S
C595        C596   1.397       .  A
C595        H607   1.082       .  S
C596        H608   1.082       .  S
C597        C598   1.362       .  A
C597        H609   1.076       .  S
C598        H610   1.067       .  S
C599        C600   1.362       .  A
C599        H611   1.076       .  S
C600        H612   1.067       .  S
C603       C1035   1.524       .  S
C604       C1078   1.523       .  S
C615        N616   1.354       .  A
C615        N620   1.367       .  A
C615        C661   1.472       .  S
N616        C617   1.349       .  A
C617        N618   1.353       .  A
C617        C647   1.466       .  S
N618        C619   1.357       .  A
C619        N620   1.369       .  A
C619       C1038   1.473       .  S
C621        N622   1.354       .  A
C621        N626   1.367       .  A
C621        C777   1.472       .  S
N622        C623   1.349       .  A
C623        N624   1.353       .  A
C623        C648   1.466       .  S
N624        C625   1.357       .  A
C625        N626   1.369       .  A
C625       C1080   1.473       .  S
N627        C632   1.345       .  A
N627        C631   1.345       .  A
N627        H659   1.038       .  S
N628        C635   1.358       .  A
N628        C636   1.356       .  A
N629        C634   1.368       .  A
N629        C633   1.368       .  A
N629        H660   1.035       .  S
N630        C637   1.358       .  A
N630        C638   1.356       .  A
C631        C639   1.389       .  A
C631        C647   1.394       .  A
C632        C648   1.394       .  A
C632        C640   1.389       .  A
C633        C641   1.388       .  A
C633        C650   1.448       .  A
C634        C649   1.448       .  A
C634        C642   1.388       .  A
C635        C647   1.412       .  A
C635        C643   1.376       .  A
C636        C650   1.429       .  A
C636        C644   1.392       .  A
C637        C645   1.376       .  A
C637        C648   1.412       .  A
C638        C646   1.392       .  A
C638        C649   1.429       .  A
C639        C640   1.356       .  A
C639        H651   1.083       .  S
C640        H652   1.083       .  S
C641        C642   1.394       .  A
C641        H653   1.082       .  S
C642        H654   1.082       .  S
C643        C644   1.366       .  A
C643        H655   1.077       .  S
C644        H656   1.075       .  S
C645        C646   1.366       .  A
C645        H657   1.077       .  S
C646        H658   1.075       .  S
C649       C1133   1.519       .  S
C650       C1108   1.519       .  S
C661        C662   1.384       .  A
C661        C666   1.412       .  A
C662        C663   1.392       .  A
C662        H681   1.085       .  S
C663        C664   1.413       .  A
C664        C665   1.429       .  A
C664        C671   1.404       .  A
C665        C666   1.427       .  A
C665        C670   1.418       .  A
C666        C667   1.405       .  A
C667        C668   1.400       .  A
C667        H677   1.083       .  S
C668        C669   1.404       .  A
C668        H678   1.083       .  S
C669        C670   1.429       .  A
C669        C676   1.413       .  A
C670        C673   1.427       .  A
C671        C672   1.399       .  A
C671        H679   1.083       .  S
C672        C673   1.405       .  A
C672        H680   1.083       .  S
C673        C674   1.412       .  A
C674        C729   1.472       .  S
C674        C675   1.384       .  A
C675        C676   1.393       .  A
C675        H682   1.084       .  S
C676        C683   1.482       .  S
C683        N684   1.372       .  A
C683        N688   1.355       .  A
N684        C685   1.372       .  A
C685        N686   1.356       .  A
C685       C1050   1.470       .  S
N686        C687   1.345       .  A
C687        N688   1.346       .  A
C687        C716   1.467       .  S
C689        N690   1.372       .  A
C689        N694   1.355       .  A
C689        C788   1.482       .  S
N690        C691   1.372       .  A
C691        N692   1.356       .  A
C691       C1064   1.470       .  S
N692        C693   1.345       .  A
C693        N694   1.346       .  A
C693        C715   1.467       .  S
N695        C700   1.338       .  A
N695        C699   1.338       .  A
N695        H727   1.036       .  S
N696        C703   1.357       .  A
N696        C704   1.352       .  A
N697        C702   1.370       .  A
N697        C701   1.370       .  A
N697        H728   1.030       .  S
N698        C705   1.357       .  A
N698        C706   1.352       .  A
C699        C707   1.386       .  A
C699        C715   1.385       .  A
C700        C716   1.385       .  A
C700        C708   1.386       .  A
C701        C709   1.389       .  A
C701        C718   1.456       .  A
C702        C717   1.456       .  A
C702        C710   1.389       .  A
C703        C715   1.411       .  A
C703        C711   1.372       .  A
C704        C718   1.432       .  A
C704        C712   1.389       .  A
C705        C713   1.372       .  A
C705        C716   1.411       .  A
C706        C714   1.389       .  A
C706        C717   1.432       .  A
C707        C708   1.369       .  A
C707        H719   1.082       .  S
C708        H720   1.082       .  S
C709        C710   1.397       .  A
C709        H721   1.082       .  S
C710        H722   1.082       .  S
C711        C712   1.362       .  A
C711        H723   1.077       .  S
C712        H724   1.067       .  S
C713        C714   1.362       .  A
C713        H725   1.077       .  S
C714        H726   1.067       .  S
C717       C1119   1.524       .  S
C718       C1092   1.524       .  S
C729        N730   1.366       .  A
C729        N734   1.353       .  A
N730        C731   1.369       .  A
C731        N732   1.359       .  A
C731       C1121   1.475       .  S
N732        C733   1.355       .  A
C733        N734   1.349       .  A
C733        C762   1.467       .  S
C735        N736   1.353       .  A
C735        N740   1.366       .  A
C735        C790   1.472       .  S
N736        C737   1.349       .  A
C737        N738   1.355       .  A
C737        C761   1.467       .  S
N738        C739   1.358       .  A
C739        N740   1.369       .  A
C739       C1094   1.475       .  S
N741        C746   1.344       .  A
N741        C745   1.344       .  A
N741        H773   1.038       .  S
N742        C749   1.358       .  A
N742        C750   1.356       .  A
N743        C748   1.368       .  A
N743        C747   1.368       .  A
N743        H774   1.037       .  S
N744        C751   1.358       .  A
N744        C752   1.356       .  A
C745        C753   1.389       .  A
C745        C761   1.394       .  A
C746        C762   1.394       .  A
C746        C754   1.389       .  A
C747        C755   1.388       .  A
C747        C764   1.449       .  A
C748        C763   1.449       .  A
C748        C756   1.388       .  A
C749        C761   1.413       .  A
C749        C757   1.377       .  A
C750        C764   1.429       .  A
C750        C758   1.392       .  A
C751        C759   1.377       .  A
C751        C762   1.413       .  A
C752        C760   1.392       .  A
C752        C763   1.429       .  A
C753        C754   1.359       .  A
C753        H765   1.083       .  S
C754        H766   1.083       .  S
C755        C756   1.395       .  A
C755        H767   1.082       .  S
C756        H768   1.082       .  S
C757        C758   1.369       .  A
C757        H769   1.078       .  S
C758        H770   1.077       .  S
C759        C760   1.369       .  A
C759        H771   1.078       .  S
C760        H772   1.077       .  S
C763       C1052   1.521       .  S
C764       C1066   1.521       .  S
C775        C776   1.392       .  A
C775        C780   1.413       .  A
C776        H795   1.085       .  S
C777        C778   1.413       .  A
C778        C785   1.405       .  A
C779        C780   1.429       .  A
C779        C784   1.418       .  A
C780        C781   1.404       .  A
C781        C782   1.399       .  A
C781        H791   1.083       .  S
C782        C783   1.404       .  A
C782        H792   1.083       .  S
C783        C784   1.427       .  A
C783        C790   1.412       .  A
C785        C786   1.400       .  A
C785        H793   1.083       .  S
C786        C787   1.404       .  A
C786        H794   1.083       .  S
C787        C788   1.413       .  A
C789        C790   1.384   1_554  A
C789        H796   1.084       .  S
C797        N798   1.355   1_565  A
C797        N802   1.370       .  A
C797        C889   1.479   1_565  S
N798        C799   1.346   1_545  A
C799        N800   1.346       .  A
C799        C830   1.467   1_565  S
N800        C801   1.356       .  A
C801        N802   1.370       .  A
C801       C1037   1.467       .  S
C803        N804   1.355   1_565  A
C803        N808   1.370       .  A
C803       C1005   1.479   1_565  S
N804        C805   1.346   1_545  A
C805        N806   1.346       .  A
C805        C829   1.467   1_565  S
N806        C807   1.356       .  A
C807        N808   1.370       .  A
C807       C1079   1.468       .  S
N809        C814   1.338       .  A
N809        C813   1.338       .  A
N809        H841   1.035       .  S
N810        C817   1.357       .  A
N810        C818   1.353       .  A
N811        C816   1.369       .  A
N811        C815   1.369       .  A
N811        H842   1.030       .  S
N812        C819   1.357       .  A
N812        C820   1.353       .  A
C813        C821   1.387   1_545  A
C813        C829   1.386       .  A
C814        C830   1.386       .  A
C814        C822   1.387   1_545  A
C815        C823   1.389       .  A
C815        C832   1.455       .  A
C816        C831   1.455       .  A
C816        C824   1.389       .  A
C817        C829   1.412       .  A
C817        C825   1.373       .  A
C818        C832   1.432       .  A
C818        C826   1.389       .  A
C819        C827   1.373       .  A
C819        C830   1.412       .  A
C820        C828   1.389       .  A
C820        C831   1.432       .  A
C821        C822   1.367       .  A
C821        H833   1.081       .  S
C822        H834   1.081       .  S
C823        C824   1.397       .  A
C823        H835   1.082       .  S
C824        H836   1.082       .  S
C825        C826   1.363       .  A
C825        H837   1.077       .  S
C826        H838   1.067       .  S
C827        C828   1.363       .  A
C827        H839   1.077       .  S
C828        H840   1.067       .  S
C831       C1107   1.523       .  S
C832       C1134   1.523       .  S
C843        N844   1.353       .  A
C843        N848   1.367       .  A
C843       C1003   1.472       .  S
N844        C845   1.348       .  A
C845        N846   1.353       .  A
C845        C875   1.466       .  S
N846        C847   1.357       .  A
C847        N848   1.369       .  A
C847       C1135   1.474       .  S
C849        N850   1.353       .  A
C849        N854   1.367       .  A
C849        C891   1.472       .  S
N850        C851   1.348       .  A
C851        N852   1.353       .  A
C851        C876   1.466       .  S
N852        C853   1.357       .  A
C853        N854   1.369       .  A
C853       C1105   1.474       .  S
N855        C860   1.345       .  A
N855        C859   1.345       .  A
N855        H887   1.038       .  S
N856        C863   1.358   1_565  A
N856        C864   1.356       .  A
N857        C862   1.368       .  A
N857        C861   1.368       .  A
N857        H888   1.035       .  S
N858        C865   1.358   1_565  A
N858        C866   1.356       .  A
C859        C867   1.389       .  A
C859        C875   1.394       .  A
C860        C876   1.394       .  A
C860        C868   1.389       .  A
C861        C869   1.388       .  A
C861        C878   1.448       .  A
C862        C877   1.448       .  A
C862        C870   1.388       .  A
C863        C875   1.412       .  A
C863        C871   1.376       .  A
C864        C878   1.429       .  A
C864        C872   1.392       .  A
C865        C873   1.376       .  A
C865        C876   1.412       .  A
C866        C874   1.392       .  A
C866        C877   1.429       .  A
C867        C868   1.356       .  A
C867        H879   1.083       .  S
C868        H880   1.083       .  S
C869        C870   1.394       .  A
C869        H881   1.082       .  S
C870        H882   1.082       .  S
C871        C872   1.367   1_545  A
C871        H883   1.077       .  S
C872        H884   1.076       .  S
C873        C874   1.367   1_545  A
C873        H885   1.077       .  S
C874        H886   1.076       .  S
C877       C1036   1.519       .  S
C878       C1077   1.519       .  S
C889        C890   1.392       .  A
C889        C894   1.411       .  A
C890        C891   1.383       .  A
C890        H909   1.085       .  S
C891        C892   1.412       .  A
C892        C893   1.428       .  A
C892        C899   1.404       .  A
C893        C894   1.428       .  A
C893        C898   1.417   1_655  A
C894        C895   1.404   1_545  A
C895        C896   1.399   1_655  A
C895        H905   1.083       .  S
C896        C897   1.404       .  A
C896        H906   1.083       .  S
C897        C898   1.427   1_565  A
C897        C904   1.411       .  A
C898        C901   1.428       .  A
C899        C900   1.400   1_655  A
C899        H907   1.083       .  S
C900        C901   1.405       .  A
C900        H908   1.083       .  S
C901        C902   1.412       .  A
C902        C957   1.480       .  S
C902        C903   1.393       .  A
C903        C904   1.384   1_545  A
C903        H910   1.084       .  S
C904        C911   1.471       .  S
C911        N912   1.365       .  A
C911        N916   1.353       .  A
N912        C913   1.368       .  A
C913        N914   1.358       .  A
C913       C1049   1.474       .  S
N914        C915   1.355       .  A
C915        N916   1.348       .  A
C915        C943   1.468   1_565  S
C917        N918   1.353       .  A
C917        N922   1.365       .  A
C917       C1016   1.471       .  S
N918        C919   1.348       .  A
C919        N920   1.355       .  A
C919        C944   1.467   1_565  S
N920        C921   1.358       .  A
C921        N922   1.368       .  A
C921       C1063   1.474       .  S
N923        C928   1.344   1_545  A
N923        C927   1.344   1_545  A
N923        H955   1.038       .  S
N924        C931   1.358       .  A
N924        C932   1.356       .  A
N925        C930   1.368       .  A
N925        C929   1.368       .  A
N925        H956   1.036       .  S
N926        C933   1.358       .  A
N926        C934   1.356       .  A
C927        C935   1.389       .  A
C927        C943   1.395   1_565  A
C928        C944   1.395   1_565  A
C928        C936   1.389       .  A
C929        C937   1.388       .  A
C929        C946   1.448       .  A
C930        C945   1.448       .  A
C930        C938   1.388       .  A
C931        C943   1.414       .  A
C931        C939   1.377       .  A
C932        C946   1.429       .  A
C932        C940   1.392       .  A
C933        C941   1.377       .  A
C933        C944   1.414       .  A
C934        C942   1.392       .  A
C934        C945   1.429       .  A
C935        C936   1.359       .  A
C935        H947   1.083       .  S
C936        H948   1.083       .  S
C937        C938   1.394       .  A
C937        H949   1.082       .  S
C938        H950   1.082       .  S
C939        C940   1.368       .  A
C939        H951   1.077       .  S
C940        H952   1.077       .  S
C941        C942   1.368       .  A
C941        H953   1.077       .  S
C942        H954   1.076       .  S
C945       C1091   1.520       .  S
C946       C1120   1.520       .  S
C957        N958   1.355       .  A
C957        N962   1.371       .  A
N958        C959   1.346       .  A
C959        N960   1.345       .  A
C959        C990   1.467       .  S
N960        C961   1.356       .  A
C961        N962   1.371       .  A
C961       C1122   1.469       .  S
C963        N964   1.355       .  A
C963        N968   1.371       .  A
C963       C1018   1.480       .  S
N964        C965   1.346       .  A
C965        N966   1.345       .  A
C965        C989   1.467       .  S
N966        C967   1.356       .  A
C967        N968   1.371       .  A
C967       C1093   1.469       .  S
N969        C974   1.338       .  A
N969        C973   1.338       .  A
N969       H1001   1.036   1_545  S
N970        C977   1.357       .  A
N970        C978   1.353       .  A
N971        C976   1.370       .  A
N971        C975   1.370       .  A
N971       H1002   1.030       .  S
N972        C979   1.357       .  A
N972        C980   1.353       .  A
C973        C981   1.386       .  A
C973        C989   1.385       .  A
C974        C990   1.385       .  A
C974        C982   1.386       .  A
C975        C983   1.389       .  A
C975        C992   1.455       .  A
C976        C991   1.456       .  A
C976        C984   1.389       .  A
C977        C989   1.411   1_565  A
C977        C985   1.372       .  A
C978        C992   1.432       .  A
C978        C986   1.389       .  A
C979        C987   1.372       .  A
C979        C990   1.411   1_565  A
C980        C988   1.389       .  A
C980        C991   1.432       .  A
C981        C982   1.369       .  A
C981        H993   1.082       .  S
C982        H994   1.082       .  S
C983        C984   1.397       .  A
C983        H995   1.082       .  S
C984        H996   1.082       .  S
C985        C986   1.363       .  A
C985        H997   1.076   1_565  S
C986        H998   1.068       .  S
C987        C988   1.363       .  A
C987        H999   1.077   1_565  S
C988       H1000   1.068       .  S
C991       C1051   1.525       .  S
C992       C1065   1.525       .  S
C1003      C1008   1.412       .  A
C1004      C1005   1.392       .  A
C1004      H1023   1.085       .  S
C1005      C1006   1.411       .  A
C1006      C1007   1.428       .  A
C1006      C1013   1.404   1_545  A
C1007      C1012   1.417   1_655  A
C1008      C1009   1.404       .  A
C1009      C1010   1.400   1_655  A
C1009      H1019   1.083       .  S
C1010      C1011   1.405       .  A
C1010      H1020   1.083       .  S
C1011      C1018   1.412       .  A
C1012      C1015   1.427   1_545  A
C1013      C1014   1.399   1_655  A
C1013      H1021   1.083       .  S
C1014      C1015   1.404       .  A
C1014      H1022   1.083       .  S
C1015      C1016   1.411       .  A
C1016      C1017   1.384   1_566  A
C1017      H1024   1.084       .  S
O1025      V1033   1.929       .  S
O1025      C1035   1.274       .  A
O1026      V1033   1.926       .  S
O1026      C1036   1.267       .  A
O1027      V1033   1.913       .  S
O1027      C1037   1.264       .  A
O1028      V1033   1.907       .  S
O1028      C1038   1.269       .  A
O1029      V1034   1.899       .  S
O1029      C1038   1.260       .  A
O1030      V1034   1.884       .  S
O1030      C1037   1.263       .  A
O1031      V1034   1.932       .  S
O1031      C1036   1.275       .  A
O1032      V1034   1.937       .  S
O1032      C1035   1.270       .  A
V1033      V1034   2.084       .  T
O1039      V1047   1.912       .  S
O1039      C1049   1.269       .  A
O1040      V1047   1.919       .  S
O1040      C1050   1.265       .  A
O1041      V1047   1.929       .  S
O1041      C1051   1.274       .  A
O1042      V1047   1.926       .  S
O1042      C1052   1.268       .  A
O1043      V1048   1.934       .  S
O1043      C1052   1.275       .  A
O1044      V1048   1.938       .  S
O1044      C1051   1.271       .  A
O1045      V1048   1.882       .  S
O1045      C1050   1.263       .  A
O1046      V1048   1.897       .  S
O1046      C1049   1.260       .  A
V1047      V1048   2.084       .  T
O1053      C1063   1.260       .  A
O1054      V1061   1.882       .  S
O1054      C1064   1.263       .  A
O1055      V1061   1.938       .  S
O1055      C1065   1.271       .  A
O1056      C1066   1.275       .  A
O1057      V1062   1.926       .  S
O1057      C1066   1.268       .  A
O1058      C1065   1.274       .  A
O1059      C1064   1.265       .  A
O1060      V1062   1.912       .  S
O1060      C1063   1.270       .  A
O1067      V1075   1.926       .  S
O1067      C1077   1.267       .  A
O1068      C1078   1.274       .  A
O1069      C1079   1.264       .  A
O1070      V1075   1.907       .  S
O1070      C1080   1.269       .  A
O1071      C1080   1.260       .  A
O1072      V1076   1.884       .  S
O1072      C1079   1.263       .  A
O1073      V1076   1.937       .  S
O1073      C1078   1.270       .  A
O1074      C1077   1.275       .  A
O1081      C1091   1.275       .  A
O1082      V1089   1.938       .  S
O1082      C1092   1.271       .  A
O1083      V1089   1.881       .  S
O1083      C1093   1.262       .  A
O1084      C1094   1.260       .  A
O1085      V1090   1.913       .  S
O1085      C1094   1.270       .  A
O1086      C1093   1.265       .  A
O1087      C1092   1.274       .  A
O1088      V1090   1.926       .  S
O1088      C1091   1.267       .  A
O1095      V1103   1.900       .  S
O1095      C1105   1.261       .  A
O1096      V1103   1.885       .  S
O1096      C1106   1.264       .  A
O1097      V1103   1.936       .  S
O1097      C1107   1.270       .  A
O1098      V1103   1.932       .  S
O1098      C1108   1.275       .  A
O1099      V1104   1.926       .  S
O1099      C1108   1.267       .  A
O1100      V1104   1.929       .  S
O1100      C1107   1.274       .  A
O1101      V1104   1.914       .  S
O1101      C1106   1.264       .  A
O1102      V1104   1.908       .  S
O1102      C1105   1.269       .  A
V1103      V1104   2.084       .  T
O1109      V1117   1.929       .  S
O1109      C1119   1.274       .  A
O1110      V1117   1.926       .  S
O1110      C1120   1.267       .  A
O1111      V1117   1.913       .  S
O1111      C1121   1.270       .  A
O1112      V1117   1.918       .  S
O1112      C1122   1.265       .  A
O1113      V1118   1.881       .  S
O1113      C1122   1.263       .  A
O1114      V1118   1.897       .  S
O1114      C1121   1.260       .  A
O1115      V1118   1.933       .  S
O1115      C1120   1.275       .  A
O1116      V1118   1.938       .  S
O1116      C1119   1.271       .  A
V1117      V1118   2.084       .  T
O1123      V1131   1.926       .  S
O1123      C1133   1.267       .  A
O1124      C1134   1.274       .  A
O1125      V1131   1.908       .  S
O1125      C1135   1.269       .  A
O1126      C1136   1.264       .  A
O1127      V1132   1.884       .  S
O1127      C1136   1.263       .  A
O1128      C1135   1.261       .  A
O1129      V1132   1.936       .  S
O1129      C1134   1.270       .  A
O1130      C1133   1.275       .  A
