geometry optimzed in LAMMPS
_audit_creation_date              2020-11-30 
_audit_creation_method            'lammps2cif' 
_symmetry_space_group_name_H-M    'P1' 
_symmetry_Int_Tables_number       1 
_symmetry_cell_setting            triclinic 
loop_ 
_symmetry_equiv_pos_as_xyz 
  x,y,z 
_cell_length_a                    73.18801521 
_cell_length_b                    45.36278426631806 
_cell_length_c                    29.979208604622333 
_cell_angle_alpha                 89.84381036241136 
_cell_angle_beta                  89.92593493490513 
_cell_angle_gamma                 90.3475575098355 
loop_ 
_atom_site_label 
_atom_site_type_symbol 
_atom_site_fract_x 
_atom_site_fract_y 
_atom_site_fract_z 
_atom_site_charge 
Zn1        Zn  0.64149442  0.41844847  0.62794512     1.49700
Zn2        Zn  0.61765355  0.38288849  0.70078869     1.49400
Zn3        Zn  0.60669361  0.38254821  0.59613682     1.49100
Zn4        Zn  0.64217693  0.34833439  0.62915461     1.49500
O5          O  0.62692208  0.38299188  0.63885041    -1.83300
O6          O  0.64329758  0.44282257  0.68332494    -0.73900
O7          O  0.58982788  0.38393068  0.70085596    -0.73700
O8          O  0.60705444  0.41825783  0.55554306    -0.73300
O9          O  0.62695527  0.41900017  0.73460647    -0.73900
O10         O  0.63062977  0.44411754  0.58027866    -0.73500
O11         O  0.58277387  0.38323793  0.62884982    -0.74100
O12         O  0.63183789  0.32254034  0.58064547    -0.73500
O13         O  0.62588727  0.34593706  0.73421106    -0.74300
O14         O  0.60714321  0.34603888  0.55769700    -0.73700
O15         O  0.64332374  0.32336759  0.68452948    -0.74100
O16         O  0.66786417  0.35971795  0.61065336    -0.74000
O17         O  0.66685903  0.40856656  0.60754694    -0.73800
C18         C  0.63696170  0.44081120  0.72279241     0.78000
C19         C  0.57796855  0.38405084  0.66965013     0.78500
C20         C  0.61716555  0.44116463  0.55383321     0.77400
C21         C  0.61795000  0.32417133  0.55529367     0.77800
C22         C  0.63614609  0.32448172  0.72322497     0.78900
C23         C  0.67542557  0.38450534  0.60231917     0.78000
C24         C  0.58823496  0.13308829  0.26897511     0.87300
C25         C  0.59319820  0.10631759  0.29817840    -0.52900
C26         C  0.58571041  0.10617306  0.34022505     0.10200
C27         C  0.57335253  0.13314371  0.34838825     0.21200
C28         C  0.56722500  0.13240251  0.26840865    -0.53600
C29         C  0.55946410  0.13304725  0.30963397     0.10300
C30         C  0.59298685  0.16018653  0.29733634    -0.53200
C31         C  0.58564650  0.16020912  0.33928975     0.10900
H32         H  0.60191310  0.08879607  0.28609048     0.15400
H33         H  0.56710640  0.13343725  0.38158177     0.01200
H34         H  0.55873568  0.13103006  0.23901011     0.15700
H35         H  0.60157252  0.17799850  0.28490582     0.15500
C36         C  0.69990820  0.13539883  0.97148629     0.87300
C37         C  0.69606600  0.10880680  0.94142185    -0.52900
C38         C  0.67846246  0.10653833  0.92661256     0.10200
C39         C  0.66604059  0.13148045  0.94369241     0.21200
C40         C  0.69339651  0.16223014  0.94381076    -0.53600
C41         C  0.67574199  0.16009512  0.92917236     0.10300
C42         C  0.68570353  0.13318400  0.00902286    -0.53200
C43         C  0.66809354  0.13070580  0.99468652     0.10900
H44         H  0.70649692  0.09280382  0.93338666     0.15400
H45         H  0.65162380  0.12998785  0.93250596     0.01200
H46         H  0.70148555  0.18165930  0.93641304     0.15700
H47         H  0.68922873  0.13374136  0.04419264     0.15500
Zn48       Zn  0.89159959  0.09305299  0.14811687     1.49700
Zn49       Zn  0.89168895  0.16395529  0.14521641     1.49400
Zn50       Zn  0.87091854  0.12713870  0.06975795     1.49100
Zn51       Zn  0.85508141  0.12831927  0.16994217     1.49500
O52         O  0.87730562  0.12813995  0.13327732    -1.83300
O53         O  0.91681240  0.10469828  0.16861994    -0.73900
O54         O  0.89380468  0.18968769  0.09012502    -0.73700
O55         O  0.88128073  0.09092689  0.03960089    -0.73300
O56         O  0.91724263  0.15354805  0.16517536    -0.73900
O57         O  0.89489571  0.06670346  0.09436460    -0.73500
O58         O  0.87991242  0.16372362  0.03743180    -0.74100
O59         O  0.83264801  0.12777655  0.13087383    -0.73500
O60         O  0.87974251  0.18892681  0.19264774    -0.74300
O61         O  0.84360423  0.12647486  0.06197160    -0.73700
O62         O  0.85391670  0.16520604  0.20775262    -0.74100
O63         O  0.85388457  0.09280452  0.21132472    -0.74000
O64         O  0.87949608  0.06882226  0.19677498    -0.73800
C65         C  0.92521828  0.12919540  0.17310464     0.78000
C66         C  0.88842382  0.18684325  0.04994828     0.78500
C67         C  0.89028709  0.06874277  0.05353467     0.77400
C68         C  0.83012852  0.12713596  0.08881821     0.77800
C69         C  0.86463517  0.18712166  0.21363639     0.78900
C70         C  0.86454752  0.07116155  0.21832054     0.78000
C71         C  0.91315751  0.38041985  0.75985913     0.87300
C72         C  0.90900242  0.40723969  0.78996735    -0.52900
C73         C  0.91645193  0.40570306  0.83172480     0.10200
C74         C  0.92793804  0.37783019  0.83928085     0.21200
C75         C  0.93407518  0.37912075  0.75940307    -0.53600
C76         C  0.94183541  0.37740311  0.80058182     0.10300
C77         C  0.90690003  0.35374801  0.78832749    -0.53200
C78         C  0.91459990  0.35223289  0.82988394     0.10900
H79         H  0.90091994  0.42603868  0.78045455     0.15400
H80         H  0.93455192  0.37679589  0.87247052     0.01200
H81         H  0.94212582  0.37970551  0.72896970     0.15700
H82         H  0.89695996  0.33767462  0.77669676     0.15500
C83         C  0.80241609  0.37825053  0.46589383     0.87300
C84         C  0.80835207  0.40595132  0.43972011    -0.52900
C85         C  0.82597059  0.40541649  0.42423408     0.10200
C86         C  0.83605190  0.37663177  0.43599493     0.21200
C87         C  0.80615915  0.35287696  0.43278518    -0.53600
C88         C  0.82369875  0.35208133  0.41701787     0.10300
C89         C  0.81687118  0.37433274  0.50210373    -0.53200
C90         C  0.83439151  0.37335330  0.48695618     0.10900
H91         H  0.79923238  0.42424348  0.43322990     0.15400
H92         H  0.85039844  0.37582020  0.42431660     0.01200
H93         H  0.79621534  0.33667309  0.42218257     0.15700
H94         H  0.81345174  0.37254420  0.53727847     0.15500
Zn95       Zn  0.36125049  0.09000695  0.41727967     1.49700
Zn96       Zn  0.39691792  0.12529561  0.44687748     1.49400
Zn97       Zn  0.38421127  0.12628524  0.34321226     1.49100
Zn98       Zn  0.36172666  0.16069651  0.41860574     1.49500
O99         O  0.37601733  0.12544820  0.40609645    -1.83300
O100        O  0.37331683  0.06362380  0.46288035    -0.73900
O101        O  0.41993142  0.12483923  0.41159632    -0.73700
O102        O  0.37497876  0.09009697  0.30941011    -0.73300
O103        O  0.39741057  0.08893920  0.48583637    -0.73900
O104        O  0.35925765  0.06540265  0.36116538    -0.73500
O105        O  0.41195810  0.12572902  0.34029952    -0.74100
O106        O  0.35878683  0.18563086  0.36359310    -0.73500
O107        O  0.39808530  0.16162420  0.48590542    -0.74300
O108        O  0.37535176  0.16351043  0.31166218    -0.73700
O109        O  0.37389993  0.18681301  0.46424901    -0.74100
O110        O  0.33692668  0.14976231  0.44274745    -0.74000
O111        O  0.33608070  0.10084621  0.44144110    -0.73800
C112        C  0.38737474  0.06592835  0.48758128     0.78000
C113        C  0.42421609  0.12508009  0.37046806     0.78500
C114        C  0.36560282  0.06767803  0.32163686     0.77400
C115        C  0.36525678  0.18481130  0.32415510     0.77800
C116        C  0.38811956  0.18446169  0.48838533     0.78900
C117        C  0.32861559  0.12550394  0.45042236     0.78000
C118        C  0.41412853  0.37605829  0.77759815     0.87300
C119        C  0.40796137  0.35017394  0.74803109    -0.52900
C120        C  0.41557534  0.34988911  0.70635409     0.10200
C121        C  0.42916809  0.37540247  0.69828135     0.21200
C122        C  0.43518846  0.37359166  0.77819842    -0.53600
C123        C  0.44299025  0.37313548  0.73680172     0.10300
C124        C  0.41070043  0.40389937  0.74963120    -0.53200
C125        C  0.41834304  0.40367689  0.70806649     0.10900
H126        H  0.39841713  0.33334174  0.75935732     0.15400
H127        H  0.43559787  0.37500553  0.66479731     0.01200
H128        H  0.44362949  0.37262316  0.80770680     0.15700
H129        H  0.40284370  0.42241295  0.76193042     0.15500
C130        C  0.30222937  0.37737366  0.07712897     0.87300
C131        C  0.30750167  0.34931646  0.10272442    -0.52900
C132        C  0.32539106  0.34821451  0.11592408     0.10200
C133        C  0.33647990  0.37599606  0.10254624     0.21200
C134        C  0.30785971  0.40277566  0.10841370    -0.53600
C135        C  0.32561629  0.40190711  0.12222119     0.10300
C136        C  0.31608698  0.38005508  0.03882445    -0.53200
C137        C  0.33393889  0.37899024  0.05172894     0.10900
H138        H  0.29753290  0.33246582  0.11147406     0.15400
H139        H  0.35100764  0.37567763  0.11309378     0.01200
H140        H  0.29916557  0.42096397  0.11772529     0.15700
H141        H  0.31214034  0.38305834  0.00422156     0.15500
Zn142      Zn  0.13986409  0.41360268  0.92152785     1.49700
Zn143      Zn  0.13957493  0.34341362  0.92095957     1.49400
Zn144      Zn  0.10369056  0.37786732  0.94762629     1.49100
Zn145      Zn  0.11752648  0.37878067  0.84533014     1.49500
O146        O  0.12512962  0.37851055  0.90855390    -1.83300
O147        O  0.16494092  0.40283487  0.94517152    -0.73900
O148        O  0.12727937  0.31669238  0.96570672    -0.73700
O149        O  0.10271392  0.41385815  0.98708887    -0.73300
O150        O  0.16418410  0.35404074  0.94614619    -0.73900
O151        O  0.12777956  0.43859243  0.96842818    -0.73500
O152        O  0.10288679  0.34161237  0.98692306    -0.74100
O153        O  0.08977365  0.37733261  0.84016539    -0.73500
O154        O  0.14343539  0.31993205  0.86525744    -0.74300
O155        O  0.08090346  0.37728431  0.91088038    -0.73700
O156        O  0.12796977  0.34337966  0.81255429    -0.74100
O157        O  0.12642010  0.41613199  0.81402122    -0.74000
O158        O  0.14241764  0.43911643  0.86651801    -0.73800
C159        C  0.17247376  0.37820986  0.95393525     0.78000
C160        C  0.11298799  0.31893948  0.98967690     0.78500
C161        C  0.11323079  0.43611353  0.99153714     0.77400
C162        C  0.07711221  0.37699686  0.86943987     0.77800
C163        C  0.13807565  0.32205790  0.82502508     0.78900
C164        C  0.13612761  0.43795615  0.82691582     0.78000
C165        C  0.08901245  0.12859195  0.28166552     0.87300
C166        C  0.09379354  0.15547415  0.25242585    -0.52900
C167        C  0.08683835  0.15451016  0.21008838     0.10200
C168        C  0.07523524  0.12677494  0.20118020     0.21200
C169        C  0.06787871  0.12751256  0.28027222    -0.53600
C170        C  0.06075047  0.12634927  0.23821850     0.10300
C171        C  0.09481560  0.10155829  0.25414570    -0.53200
C172        C  0.08776770  0.10071300  0.21200573     0.10900
H173        H  0.10187222  0.17391607  0.26449787     0.15400
H174        H  0.06920110  0.12586519  0.16733924     0.01200
H175        H  0.05893744  0.12825565  0.30890421     0.15700
H176        H  0.10350418  0.08427794  0.26728835     0.15500
C177        C  0.19914112  0.13177141  0.57500278     0.87300
C178        C  0.19373565  0.15875030  0.60297343    -0.52900
C179        C  0.17650542  0.15731868  0.62060653     0.10200
C180        C  0.16590428  0.12922942  0.60782256     0.21200
C181        C  0.19544534  0.10487643  0.60534495    -0.53600
C182        C  0.17814233  0.10346203  0.62297904     0.10300
C183        C  0.18387441  0.12969763  0.53964780    -0.53200
C184        C  0.16666918  0.12841856  0.55670698     0.10900
H185        H  0.20269094  0.17759660  0.60798238     0.15400
H186        H  0.15176340  0.12858994  0.62120703     0.01200
H187        H  0.20556842  0.08787867  0.61073723     0.15700
H188        H  0.18570460  0.12920471  0.50400440     0.15500
C189        C  0.12614774  0.14783249  0.48425615    -0.13500
C190        C  0.12599158  0.12368515  0.45500162     0.16900
C191        C  0.13745134  0.09951424  0.46365396     0.03100
C192        C  0.14975082  0.10065885  0.49921032    -0.12000
C193        C  0.15076437  0.12552665  0.52673527    -0.03100
C194        C  0.13855011  0.14898338  0.51994344     0.02400
C195        C  0.11605873  0.12571502  0.41205304     0.09200
N196        N  0.13722313  0.07420311  0.43532618     0.65600
H197        H  0.15912552  0.08254566  0.50428380     0.18500
N198        N  0.14005001  0.17538682  0.54560312     0.76100
H199        H  0.11759414  0.16672514  0.47740015     0.10000
C200        C  0.09691196  0.12687768  0.40980135     0.03700
C201        C  0.08828446  0.12894676  0.36805908    -0.05000
C202        C  0.09838469  0.12938951  0.32770569    -0.23400
C203        C  0.11777406  0.12919678  0.33094253     0.13000
C204        C  0.12625025  0.12731175  0.37263612    -0.12500
N205        N  0.08602088  0.12479568  0.44947571     0.64600
H206        H  0.07360379  0.12925849  0.36833729     0.12500
N207        N  0.12924130  0.12999782  0.29224962     0.61300
H208        H  0.14104872  0.12705029  0.37425178     0.08600
O209        O  0.12755039  0.18214014  0.57266173    -0.40200
O210        O  0.15243249  0.19392993  0.53650168    -0.39400
O211        O  0.15125897  0.06748146  0.41317209    -0.39400
O212        O  0.12337404  0.05750785  0.43457905    -0.37100
O213        O  0.13893007  0.10782405  0.28356168    -0.38000
O214        O  0.13375623  0.15463607  0.27584711    -0.34100
O215        O  0.07305907  0.14253776  0.45575658    -0.35500
O216        O  0.08835788  0.10376516  0.47649937    -0.39800
C217        C  0.16074613  0.25521991  0.77214796    -0.13500
C218        C  0.15086561  0.25231373  0.73240852     0.16900
C219        C  0.13694765  0.27277056  0.72248747     0.03100
C220        C  0.13352600  0.29598503  0.75232945    -0.12000
C221        C  0.14330839  0.29877753  0.79252275    -0.03100
C222        C  0.15720364  0.27809894  0.80201307     0.02400
C223        C  0.15604273  0.22827613  0.70147199     0.09200
N224        N  0.12584339  0.26977720  0.68323144     0.65600
H225        H  0.12262619  0.31126177  0.74483552     0.18500
N226        N  0.16817345  0.28027425  0.84132770     0.76100
H227        H  0.17159620  0.23982263  0.77967735     0.10000
C228        C  0.16348754  0.23405881  0.65877891     0.03700
C229        C  0.16972734  0.21052128  0.63267678    -0.05000
C230        C  0.16869521  0.18132272  0.64817501    -0.23400
C231        C  0.16057973  0.17558897  0.69001306     0.13000
C232        C  0.15441055  0.19901100  0.71623292    -0.12500
N233        N  0.16534802  0.26358786  0.64201382     0.64600
H234        H  0.17583821  0.21512770  0.60044938     0.12500
N235        N  0.15977315  0.14639597  0.70792132     0.61300
H236        H  0.14875381  0.19439740  0.74897021     0.08600
O237        O  0.18119889  0.29860366  0.84274129    -0.40200
O238        O  0.16645972  0.26131125  0.87195008    -0.39400
O239        O  0.12013989  0.24471101  0.67120380    -0.39400
O240        O  0.12021623  0.29240948  0.66299989    -0.37100
O241        O  0.17377375  0.13577706  0.72623164    -0.38000
O242        O  0.14445138  0.13419788  0.71434471    -0.34100
O243        O  0.17266512  0.28338650  0.66563095    -0.35500
O244        O  0.16125207  0.26928545  0.60202776    -0.39800
C245        C  0.15081660  0.51258389  0.77998136    -0.13500
C246        C  0.15071589  0.00868448  0.73678750     0.16900
C247        C  0.14666152  0.47852515  0.71844617     0.03100
C248        C  0.14081302  0.45681618  0.74903226    -0.12000
C249        C  0.14040360  0.46239749  0.79519094    -0.03100
C250        C  0.14509598  0.49095361  0.81043820     0.02400
C251        C  0.15733404  0.03255801  0.70653088     0.09200
N252        N  0.14831966  0.47107526  0.67212507     0.65600
H253        H  0.13745735  0.43499175  0.73681102     0.18500
N254        N  0.14364083  0.49867019  0.85658492     0.76100
H255        H  0.15622124  0.03459683  0.79543342     0.10000
C256        C  0.14601960  0.04618642  0.67444652     0.03700
C257        C  0.15326593  0.06866752  0.64709667    -0.05000
C258        C  0.17139122  0.07873923  0.65201967    -0.23400
C259        C  0.18256954  0.06498464  0.68444195     0.13000
C260        C  0.17550616  0.04198938  0.71066513    -0.12500
N261        N  0.12710885  0.03811222  0.67005974     0.64600
H262        H  0.14452806  0.07857109  0.62216455     0.12500
N263        N  0.20083181  0.07486222  0.69298736     0.61300
H264        H  0.18422261  0.03177393  0.73541932     0.08600
O265        O  0.12821417  0.49847518  0.87546998    -0.40200
O266        O  0.15732688  0.50898804  0.87695608    -0.39400
O267        O  0.16288473  0.47692998  0.65121058    -0.39400
O268        O  0.13094570  0.95966967  0.65772226    -0.37100
O269        O  0.20357821  0.10064796  0.70720834    -0.38000
O270        O  0.21370691  0.05648216  0.69398903    -0.34100
O271        O  0.11706855  0.03598831  0.70420535    -0.35500
O272        O  0.12221385  0.52978589  0.62746070    -0.39800
C273        C  0.08831300  0.27113464  0.07633033    -0.13500
C274        C  0.10170971  0.25010681  0.08596527     0.16900
C275        C  0.11858058  0.25141099  0.06333913     0.03100
C276        C  0.12172081  0.27350085  0.03145172    -0.12000
C277        C  0.10841451  0.29487623  0.02182854    -0.03100
C278        C  0.09140987  0.29326915  0.04440118     0.02400
C279        C  0.09749523  0.22588379  0.11777092     0.09200
N280        N  0.13287189  0.23103854  0.07352000     0.65600
H281        H  0.13492195  0.27436709  0.01508626     0.18500
N282        N  0.07688394  0.31314544  0.03424317     0.73300
H283        H  0.07515000  0.26984013  0.09285531     0.10000
C284        C  0.09311833  0.23161192  0.16265346     0.03700
C285        C  0.08921490  0.20813303  0.19167823    -0.05000
C286        C  0.08984173  0.17870901  0.17703808    -0.23400
C287        C  0.09370568  0.17314207  0.13157612     0.13000
C288        C  0.09744761  0.19668957  0.10255521    -0.12500
N289        N  0.09321868  0.26108652  0.17954710     0.64600
H290        H  0.08595983  0.21296875  0.22614325     0.12500
N291        N  0.09474092  0.14381633  0.11450042     0.61300
H292        H  0.10056328  0.19212575  0.06790483     0.08600
O293        O  0.07066551  0.32982431  0.06419204    -0.40200
O294        O  0.06858504  0.31102679  0.99749599    -0.39400
O295        O  0.14056518  0.21689788  0.04262201    -0.39400
O296        O  0.13894150  0.22914976  0.11281174    -0.37100
O297        O  0.08273936  0.13493266  0.08740832    -0.38000
O298        O  0.10961287  0.13005654  0.11731406    -0.34100
O299        O  0.07908152  0.27141671  0.19770816    -0.35500
O300        O  0.10780962  0.27606240  0.17926811    -0.39800
C301        C  0.09075373  0.47995199  0.08530852    -0.13500
C302        C  0.09960331  0.00725696  0.08369620     0.16900
C303        C  0.11252959  0.01120578  0.04913305     0.03100
C304        C  0.11740497  0.48742674  0.01954497    -0.12000
C305        C  0.10846800  0.45999126  0.02345450    -0.03100
C306        C  0.09491442  0.45644638  0.05682829     0.02400
C307        C  0.09624943  0.03082032  0.11708567     0.09200
N308        N  0.12107396  0.03931633  0.04129317     0.65600
H309        H  0.12753819  0.49090813  0.99364969     0.18500
N310        N  0.08573791  0.42886321  0.06353824     0.76100
H311        H  0.08080484  0.47657802  0.11166633     0.10000
C312        C  0.07853089  0.04126000  0.12639406     0.03700
C313        C  0.07616246  0.06377928  0.15778526    -0.05000
C314        C  0.09115159  0.07636141  0.18006862    -0.23400
C315        C  0.10888210  0.06546273  0.17149350     0.13000
C316        C  0.11115443  0.04260992  0.14061530    -0.12500
N317        N  0.06287269  0.02965406  0.10368785     0.64600
H318        H  0.06249020  0.07167877  0.16454263     0.12500
N319        N  0.12477863  0.07800789  0.19223730     0.61300
H320        H  0.12477110  0.03439541  0.13409884     0.08600
O321        O  0.06877480  0.42680544  0.05661699    -0.40200
O322        O  0.09404872  0.40775389  0.08183693    -0.39400
O323        O  0.13795350  0.04086588  0.03282213    -0.39400
O324        O  0.11150920  0.06233304  0.03886478    -0.37100
O325        O  0.12732054  0.10554758  0.19171005    -0.38000
O326        O  0.13745565  0.06146215  0.20565728    -0.34100
O327        O  0.04943967  0.01984464  0.12574327    -0.35500
O328        O  0.06292417  0.53327625  0.05700082    -0.39800
C329        C  0.21715430  0.35202255  0.00618421    -0.13500
C330        C  0.22702990  0.37848228  0.00958576     0.16900
C331        C  0.21901081  0.40495504  0.99435364     0.03100
C332        C  0.20111894  0.40432588  0.97736389    -0.12000
C333        C  0.19119391  0.37776161  0.97362388    -0.03100
C334        C  0.19950100  0.35134716  0.98838787     0.02400
C335        C  0.24567366  0.37766582  0.02913456     0.09200
N336        N  0.22897306  0.43237801  0.99452747     0.65600
H337        H  0.19515909  0.42472906  0.96568108     0.18500
N338        N  0.19023788  0.32356794  0.98597149     0.76100
H339        H  0.22318034  0.33163036  0.01781851     0.10000
C340        C  0.25061316  0.39461578  0.06668861     0.03700
C341        C  0.26874486  0.39418392  0.08194622    -0.05000
C342        C  0.28224182  0.37677322  0.06118873    -0.23400
C343        C  0.27663519  0.35820114  0.02558420     0.13000
C344        C  0.25871572  0.35937316  0.00952293    -0.12500
N345        N  0.23733496  0.41174977  0.09042330     0.64600
H346        H  0.27176389  0.40665655  0.11158990     0.12500
N347        N  0.28885405  0.33767251  0.00539024     0.61300
H348        H  0.25491053  0.34567601  0.98140948     0.08600
O349        O  0.18042191  0.31500434  0.01818429    -0.40200
O350        O  0.19406188  0.30582868  0.95503031    -0.39400
O351        O  0.24552283  0.43322893  0.98262731    -0.39400
O352        O  0.22077733  0.45625397  0.00215689    -0.37100
O353        O  0.29227143  0.33971096  0.96421566    -0.38000
O354        O  0.29218086  0.31379800  0.02528591    -0.34100
O355        O  0.22183306  0.40093232  0.09950137    -0.35500
O356        O  0.24166244  0.43663894  0.10607626    -0.39800
C357        C  0.37530393  0.38304503  0.86390076    -0.13500
C358        C  0.38464843  0.38289112  0.90465342     0.16900
C359        C  0.40373884  0.37911578  0.90452630     0.03100
C360        C  0.41307940  0.37593424  0.86385208    -0.12000
C361        C  0.40387038  0.37709309  0.82245121    -0.03100
C362        C  0.38456810  0.38035650  0.82328776     0.02400
C363        C  0.37388229  0.38488082  0.94671260     0.09200
N364        N  0.41393667  0.37945319  0.94532445     0.65600
H365        H  0.42765324  0.37334765  0.86570757     0.18500
N366        N  0.37403752  0.38123632  0.78310143     0.76100
H367        H  0.36055666  0.38511681  0.86355427     0.10000
C368        C  0.36102835  0.40760387  0.95308352     0.03700
C369        C  0.34857187  0.40571546  0.98853791    -0.05000
C370        C  0.34898633  0.38206592  0.01878855    -0.23400
C371        C  0.36262233  0.36050123  0.01426421     0.13000
C372        C  0.37480938  0.36188614  0.97813484    -0.12500
N373        N  0.36036547  0.43249500  0.92351477     0.64600
H374        H  0.33836197  0.42273474  0.99236460     0.12500
N375        N  0.36314708  0.33558084  0.04342205     0.61300
H376        H  0.38441676  0.34408775  0.97333625     0.08600
O377        O  0.36819932  0.40570152  0.76916490    -0.40200
O378        O  0.36661642  0.35783845  0.76916126    -0.39400
O379        O  0.42577048  0.35992727  0.95277010    -0.39400
O380        O  0.41226293  0.40063763  0.97221152    -0.37100
O381        O  0.35530647  0.31197377  0.03192019    -0.38000
O382        O  0.37445062  0.33515685  0.07514936    -0.34100
O383        O  0.34520956  0.44181323  0.90942315    -0.35500
O384        O  0.37482603  0.44638807  0.91370387    -0.39800
C385        C  0.25210415  0.13377495  0.57170803    -0.13500
C386        C  0.25576101  0.13174093  0.52604695     0.16900
C387        C  0.24114982  0.13087954  0.49580019     0.03100
C388        C  0.22314698  0.13193788  0.51153823    -0.12000
C389        C  0.21904688  0.13312951  0.55767987    -0.03100
C390        C  0.23405981  0.13458307  0.58773857     0.02400
C391        C  0.27487273  0.13086234  0.50985833     0.09200
N392        N  0.24436801  0.12797967  0.44882788     0.65600
H393        H  0.21276262  0.13091615  0.48652221     0.18500
N394        N  0.23135606  0.13632921  0.63487704     0.76100
H395        H  0.26335204  0.13473383  0.59513002     0.10000
C396        C  0.28302515  0.15566783  0.48958022     0.03700
C397        C  0.30035891  0.15331260  0.47006955    -0.05000
C398        C  0.30999063  0.12651108  0.47063781    -0.23400
C399        C  0.30176267  0.10174486  0.49158922     0.13000
C400        C  0.28434949  0.10414159  0.51083153    -0.12500
N401        N  0.27386536  0.18343224  0.48885071     0.64600
H402        H  0.30631839  0.17271117  0.45453905     0.12500
N403        N  0.31096293  0.07412394  0.49434727     0.61300
H404        H  0.27806039  0.08490172  0.52607322     0.08600
O405        O  0.23070274  0.16136337  0.65304376    -0.40200
O406        O  0.23518745  0.11421196  0.65858797    -0.39400
O407        O  0.25317495  0.10620777  0.43416114    -0.39400
O408        O  0.23667063  0.14520074  0.42168710    -0.37100
O409        O  0.32153622  0.06906964  0.52664919    -0.38000
O410        O  0.30642728  0.05337910  0.46860663    -0.34100
O411        O  0.27207479  0.19790161  0.52446865    -0.35500
O412        O  0.26956533  0.19509200  0.45210147    -0.39800
C413        C  0.36503939  0.23704844  0.22353084    -0.13500
C414        C  0.35072485  0.25599017  0.23488852     0.16900
C415        C  0.34137486  0.25171263  0.27543659     0.03100
C416        C  0.34654365  0.22879491  0.30410616    -0.12000
C417        C  0.36074425  0.20933360  0.29280173    -0.03100
C418        C  0.37015375  0.21391225  0.25202403     0.02400
C419        C  0.34523510  0.27955977  0.20346648     0.09200
N420        N  0.32618569  0.26985768  0.28718014     0.65600
H421        H  0.33898570  0.22576951  0.33489408     0.18500
N422        N  0.38521232  0.19582786  0.23947483     0.76100
H423        H  0.37231655  0.24031414  0.19238069     0.10000
C424        C  0.35071946  0.30908189  0.20937858     0.03700
C425        C  0.34448232  0.33093554  0.17994417    -0.05000
C426        C  0.33278488  0.32386521  0.14427800    -0.23400
C427        C  0.32752050  0.29397653  0.13831141     0.13000
C428        C  0.33371763  0.27232545  0.16798212    -0.12500
N429        N  0.36250283  0.31715232  0.24534525     0.64600
H430        H  0.34847615  0.35363310  0.18576274     0.12500
N431        N  0.31635920  0.28492568  0.10165172     0.61300
H432        H  0.32954043  0.24958157  0.16324119     0.08600
O433        O  0.40106825  0.20214628  0.25304396    -0.40200
O434        O  0.38311023  0.17625433  0.21007188    -0.39400
O435        O  0.31175860  0.26891999  0.26419301    -0.39400
O436        O  0.32632210  0.28394555  0.32341561    -0.37100
O437        O  0.32231366  0.28775456  0.06238268    -0.38000
O438        O  0.30228547  0.26935315  0.10865238    -0.34100
O439        O  0.37955965  0.31430108  0.24123395    -0.35500
O440        O  0.35612712  0.33059506  0.27864789    -0.39800
C441        C  0.33000416  0.45741530  0.21623944    -0.13500
C442        C  0.34587868  0.47280538  0.20400613     0.16900
C443        C  0.35575284  0.46375564  0.16601653     0.03100
C444        C  0.34931863  0.43993943  0.14039467    -0.12000
C445        C  0.33328345  0.42473305  0.15248103    -0.03100
C446        C  0.32373579  0.43334293  0.19134577     0.02400
C447        C  0.35196012  0.49766827  0.23255760     0.09200
N448        N  0.36968277  0.98166937  0.14564098     0.65600
H449        H  0.35672937  0.43354335  0.11066648     0.18500
N450        N  0.30787351  0.41748076  0.20648905     0.76100
H451        H  0.32256063  0.46396517  0.24584739     0.10000
C452        C  0.35154478  0.52730917  0.21795345     0.03700
C453        C  0.35614870  0.04932671  0.24639597    -0.05000
C454        C  0.36228089  0.04319646  0.28982616    -0.23400
C455        C  0.36407055  0.01348101  0.30344718     0.13000
C456        C  0.35894567  0.99076160  0.27434125    -0.12500
N457        N  0.34454455  0.53487287  0.17476452     0.64600
H458        H  0.35453541  0.07205203  0.23596525     0.12500
N459        N  0.37146592  0.00594923  0.34629160     0.61300
H460        H  0.36035186  0.96804585  0.28505278     0.08600
O461        O  0.29396401  0.43129225  0.21969411    -0.40200
O462        O  0.30831412  0.38977971  0.21044705    -0.39400
O463        O  0.38361368  0.98565547  0.16970905    -0.39400
O464        O  0.36994339  0.99017474  0.10551595    -0.37100
O465        O  0.36477851  0.98465671  0.36818126    -0.38000
O466        O  0.38606038  0.01797097  0.35966543    -0.34100
O467        O  0.32921507  0.52496475  0.16239116    -0.35500
O468        O  0.35241382  0.55443411  0.15154557    -0.39800
C469        C  0.42488252  0.46119587  0.61584374    -0.13500
C470        C  0.40728475  0.47323474  0.61331632     0.16900
C471        C  0.39344010  0.46214340  0.64168324     0.03100
C472        C  0.39742321  0.43946411  0.67175725    -0.12000
C473        C  0.41510932  0.42781106  0.67521927    -0.03100
C474        C  0.42896525  0.43890410  0.64679828     0.02400
C475        C  0.40321321  0.49645310  0.57977249     0.09200
N476        N  0.37532671  0.47400402  0.64085116     0.65600
H477        H  0.38654102  0.43091945  0.69272390     0.18500
N478        N  0.44742563  0.42910800  0.65062612     0.76100
H479        H  0.43513457  0.96971973  0.59400467     0.10000
C480        C  0.41249261  0.02346706  0.57818079     0.03700
C481        C  0.40740502  0.04536500  0.54754308    -0.05000
C482        C  0.39236023  0.04150972  0.51877230    -0.23400
C483        C  0.38285931  0.01415194  0.51994053     0.13000
C484        C  0.38913590  0.49155073  0.54901345    -0.12500
N485        N  0.42726406  0.02923762  0.60824615     0.64600
H486        H  0.41505878  0.06588194  0.54722983     0.12500
N487        N  0.36760481  0.00818236  0.49146377     0.61300
H488        H  0.38194867  0.47058389  0.54901629     0.08600
O489        O  0.45560405  0.41909551  0.61686903    -0.40200
O490        O  0.45648335  0.43553274  0.68505319    -0.39400
O491        O  0.36167036  0.45695138  0.63852319    -0.39400
O492        O  0.37288181  0.50133520  0.64566588    -0.37100
O493        O  0.36804081  0.98609894  0.46598756    -0.38000
O494        O  0.35353633  0.51787128  0.49602872    -0.34100
O495        O  0.44277180  0.03648049  0.59319455    -0.35500
O496        O  0.42440646  0.02987414  0.64975791    -0.39800
C497        C  0.40572237  0.30879420  0.59779534    -0.13500
C498        C  0.40441025  0.27950302  0.61285508     0.16900
C499        C  0.40728503  0.27348424  0.65856466     0.03100
C500        C  0.41107786  0.29665730  0.68805011    -0.12000
C501        C  0.41171368  0.32608386  0.67334113    -0.03100
C502        C  0.40898588  0.33207610  0.62754685     0.02400
C503        C  0.40024706  0.25549018  0.58044187     0.09200
N504        N  0.40593193  0.24406954  0.67582393     0.65600
H505        H  0.41338325  0.29158922  0.72292222     0.18500
N506        N  0.40818698  0.36168213  0.61113716     0.76100
H507        H  0.40369137  0.31371566  0.56276722     0.10000
C508        C  0.38491412  0.25676109  0.55192290     0.03700
C509        C  0.38155342  0.23376642  0.52177327    -0.05000
C510        C  0.39293021  0.20887924  0.51970225    -0.23400
C511        C  0.40844899  0.20798669  0.54783446     0.13000
C512        C  0.41199079  0.23121330  0.57741954    -0.12500
N513        N  0.37226915  0.28073114  0.55411508     0.64600
H514        H  0.36959038  0.23514042  0.50064501     0.12500
N515        N  0.42080686  0.18373370  0.54697230     0.61300
H516        H  0.42405379  0.23024856  0.59828501     0.08600
O517        O  0.41788374  0.36933762  0.57819067    -0.40200
O518        O  0.39548152  0.37830690  0.62400420    -0.39400
O519        O  0.41864194  0.23372330  0.69946722    -0.39400
O520        O  0.39143887  0.22927099  0.67053772    -0.37100
O521        O  0.43473765  0.18481134  0.52216469    -0.38000
O522        O  0.41922593  0.16331071  0.57540166    -0.34100
O523        O  0.36732432  0.29364756  0.51882800    -0.35500
O524        O  0.36471411  0.28718165  0.59065315    -0.39800
C525        C  0.98869358  0.35586554  0.84338763    -0.13500
C526        C  0.99986594  0.37774857  0.82409074     0.16900
C527        C  0.99198500  0.39838612  0.79461371     0.03100
C528        C  0.97314905  0.39725359  0.78609672    -0.12000
C529        C  0.96190650  0.37616730  0.80705877    -0.03100
C530        C  0.96987146  0.35489594  0.83517436     0.02400
C531        C  0.01966858  0.37846897  0.83530226     0.09200
N532        N  0.00273752  0.42143220  0.77482391     0.65600
H533        H  0.96713747  0.41375599  0.76451815     0.18500
N534        N  0.95920203  0.33129556  0.85368373     0.76100
H535        H  0.99470110  0.33918439  0.86465416     0.10000
C536        C  0.02548435  0.37854972  0.88013606     0.03700
C537        C  0.04413273  0.37727708  0.88998475    -0.05000
C538        C  0.05746973  0.37664240  0.85611771    -0.23400
C539        C  0.05159726  0.37659469  0.81112056     0.13000
C540        C  0.03284958  0.37743465  0.80121499    -0.12500
N541        N  0.01263143  0.38070089  0.91612662     0.64600
H542        H  0.04815635  0.37757938  0.92474107     0.12500
N543        N  0.06437483  0.37534899  0.77507782     0.61300
H544        H  0.02854962  0.37674719  0.76665683     0.08600
O545        O  0.96008513  0.32557792  0.89484719    -0.40200
O546        O  0.95105095  0.31357571  0.82802497    -0.39400
O547        O  0.00283272  0.42484476  0.73302941    -0.39400
O548        O  0.01087728  0.43993657  0.79922648    -0.37100
O549        O  0.07086119  0.35085467  0.76330032    -0.38000
O550        O  0.06724927  0.39792083  0.75133582    -0.34100
O551        O  0.01375009  0.36351515  0.94918319    -0.35500
O552        O  0.00096887  0.40109125  0.91647365    -0.39800
C553        C  0.89839796  0.35363670  0.64299306    -0.13500
C554        C  0.88727877  0.37662258  0.62804401     0.16900
C555        C  0.88556187  0.40212725  0.65445143     0.03100
C556        C  0.89457894  0.40375455  0.69566109    -0.12000
C557        C  0.90499685  0.38004719  0.71242416    -0.03100
C558        C  0.90736778  0.35518405  0.68424759     0.02400
C559        C  0.87625437  0.37258128  0.58694066     0.09200
N560        N  0.87392484  0.42596793  0.64116086     0.65600
H561        H  0.89265458  0.42362701  0.71444956     0.18500
N562        N  0.91856468  0.33089692  0.69730075     0.76100
H563        H  0.89990089  0.33405775  0.62270036     0.10000
C564        C  0.87783251  0.39162609  0.54967627     0.03700
C565        C  0.86456493  0.39036399  0.51579519    -0.05000
C566        C  0.85002858  0.37010730  0.51807551    -0.23400
C567        C  0.84940501  0.34949145  0.55356611     0.13000
C568        C  0.86237365  0.35121500  0.58774435    -0.12500
N569        N  0.89252472  0.41263213  0.54639230     0.64600
H570        H  0.86521090  0.40598766  0.48841928     0.12500
N571        N  0.83551541  0.32703904  0.55574407     0.61300
H572        H  0.86129356  0.33631091  0.61596276     0.08600
O573        O  0.93523046  0.33092973  0.68646121    -0.40200
O574        O  0.91107129  0.30690683  0.70870825    -0.39400
O575        O  0.85755868  0.42095723  0.63012525    -0.39400
O576        O  0.87927524  0.45229973  0.64565135    -0.37100
O577        O  0.83167889  0.31196402  0.52164214    -0.38000
O578        O  0.82789860  0.32088883  0.59244705    -0.34100
O579        O  0.90865383  0.40502401  0.55557804    -0.35500
O580        O  0.88971543  0.43799943  0.53048590    -0.39800
C581        C  0.85060916  0.45065926  0.33448630    -0.13500
C582        C  0.84693652  0.47963219  0.34813475     0.16900
C583        C  0.83706485  0.48399140  0.38812522     0.03100
C584        C  0.83054110  0.45950611  0.41228308    -0.12000
C585        C  0.83406615  0.43049615  0.39835751    -0.03100
C586        C  0.84458137  0.42624977  0.35935371     0.02400
C587        C  0.85200038  0.00476490  0.31831859     0.09200
N588        N  0.83266030  0.01351518  0.40355941     0.65600
H589        H  0.82290521  0.46319211  0.44273576     0.18500
N590        N  0.84834189  0.39744246  0.34266572     0.76100
H591        H  0.85778108  0.44684899  0.30340830     0.10000
C592        C  0.86990882  0.00824212  0.30142431     0.03700
C593        C  0.87352737  0.02959603  0.26853758    -0.05000
C594        C  0.85974044  0.04830579  0.25240270    -0.23400
C595        C  0.84185140  0.04501484  0.26985978     0.13000
C596        C  0.83820827  0.02345220  0.30240054    -0.12500
N597        N  0.88431496  0.48817230  0.31347818     0.64600
H598        H  0.88739523  0.03197400  0.25630454     0.12500
N599        N  0.82699940  0.06228894  0.25344962     0.61300
H600        H  0.82428896  0.02051402  0.31403681     0.08600
O601        O  0.86406413  0.38679081  0.34826476    -0.40200
O602        O  0.83829628  0.38698157  0.31237843    -0.39400
O603        O  0.81675832  0.02004443  0.41637041    -0.39400
O604        O  0.84544708  0.03207594  0.40799347    -0.37100
O605        O  0.82083632  0.05767640  0.21477238    -0.38000
O606        O  0.81842062  0.07902893  0.27958705    -0.34100
O607        O  0.89553447  0.97847713  0.29118880    -0.35500
O608        O  0.88760226  0.48467506  0.35447364    -0.39800
C609        C  0.86509115  0.25653116  0.28611590    -0.13500
C610        C  0.84772077  0.25516703  0.30589428     0.16900
C611        C  0.83596634  0.23143588  0.29520963     0.03100
C612        C  0.84173796  0.20981703  0.26500682    -0.12000
C613        C  0.85919289  0.21095341  0.24522014    -0.03100
C614        C  0.87090468  0.23486706  0.25609537     0.02400
C615        C  0.84165075  0.27980756  0.33501209     0.09200
N616        N  0.81825436  0.22869464  0.31534406     0.65600
H617        H  0.83248324  0.19179190  0.25744393     0.18500
N618        N  0.88865314  0.23786729  0.23660934     0.76100
H619        H  0.87410158  0.27495820  0.29331548     0.10000
C620        C  0.85201406  0.28909681  0.37220404     0.03700
C621        C  0.84641267  0.31374286  0.39685449    -0.05000
C622        C  0.83023385  0.32866691  0.38633542    -0.23400
C623        C  0.81984725  0.31929594  0.34914184     0.13000
C624        C  0.82571807  0.29520591  0.32385334    -0.12500
N625        N  0.86764270  0.27277654  0.38674837     0.64600
H626        H  0.85419148  0.32021457  0.42600370     0.12500
N627        N  0.80346747  0.33417554  0.33612504     0.61300
H628        H  0.81789958  0.28871939  0.29477501     0.08600
O629        O  0.90260500  0.23115870  0.25903975    -0.40200
O630        O  0.89053080  0.25146425  0.20009188    -0.39400
O631        O  0.80441981  0.22340380  0.29150659    -0.39400
O632        O  0.81656473  0.22959627  0.35722808    -0.37100
O633        O  0.80392889  0.36120213  0.32610863    -0.38000
O634        O  0.78887099  0.31970301  0.33051892    -0.34100
O635        O  0.88205473  0.28614251  0.39822509    -0.35500
O636        O  0.86644445  0.24525521  0.39256701    -0.39800
C637        C  0.91041630  0.99881792  0.00178880    -0.13500
C638        C  0.90454017  0.00129961  0.95737955     0.16900
C639        C  0.89419529  0.02617443  0.94477061     0.03100
C640        C  0.88960717  0.04742158  0.97672544    -0.12000
C641        C  0.89540109  0.04504345  0.02132561    -0.03100
C642        C  0.90606996  0.02032371  0.03360676     0.02400
C643        C  0.90853287  0.47559911  0.92764770     0.09200
N644        N  0.88844693  0.03041026  0.89947691     0.65600
H645        H  0.88162913  0.06622228  0.96617517     0.18500
N646        N  0.91242707  0.01634581  0.07827869     0.76100
H647        H  0.91519567  0.47603329  0.01641541     0.10000
C648        C  0.92574790  0.46202688  0.92283318     0.03700
C649        C  0.92784669  0.43852864  0.89275151    -0.05000
C650        C  0.91316071  0.42853443  0.86657576    -0.23400
C651        C  0.89574084  0.44143448  0.87270947     0.13000
C652        C  0.89371119  0.46476737  0.90284657    -0.12500
N653        N  0.94138925  0.47275662  0.94657690     0.64600
H654        H  0.94126344  0.42900178  0.88826795     0.12500
N655        N  0.87984103  0.43066261  0.84974508     0.61300
H656        H  0.88029140  0.47423337  0.90762359     0.08600
O657        O  0.92401343  0.51000084  0.09631104    -0.40200
O658        O  0.90214090  0.00427614  0.10688388    -0.39400
O659        O  0.87228382  0.03822777  0.89109859    -0.39400
O660        O  0.89979537  0.02818578  0.86793349    -0.37100
O661        O  0.87615911  0.40344133  0.84933574    -0.38000
O662        O  0.86857156  0.44857183  0.83319283    -0.34100
O663        O  0.95141459  0.45505722  0.96778919    -0.35500
O664        O  0.94427709  0.00450418  0.93658540    -0.39800
C665        C  0.88676938  0.23656053  0.94698806    -0.13500
C666        C  0.90181973  0.25529878  0.95428331     0.16900
C667        C  0.91209737  0.25189424  0.99383676     0.03100
C668        C  0.90718579  0.22999525  0.02486965    -0.12000
C669        C  0.89234284  0.21085000  0.01722490    -0.03100
C670        C  0.88186488  0.21464271  0.97798697     0.02400
C671        C  0.90563959  0.27972928  0.92205195     0.09200
N672        N  0.92782071  0.27000131  0.00248717     0.65600
H673        H  0.91543399  0.22737558  0.05459169     0.18500
N674        N  0.86563029  0.19761861  0.97024212     0.76100
H675        H  0.87833663  0.23968384  0.91768563     0.10000
C676        C  0.90731510  0.27464384  0.87574890     0.03700
C677        C  0.90955722  0.29860236  0.84637491    -0.05000
C678        C  0.91072139  0.32774044  0.86215292    -0.23400
C679        C  0.90904068  0.33267847  0.90854708     0.13000
C680        C  0.90643676  0.30882598  0.93772288    -0.12500
N681        N  0.90741756  0.24526286  0.85823963     0.64600
H682        H  0.91123292  0.29425217  0.81109556     0.12500
N683        N  0.90878764  0.36180414  0.92658922     0.61300
H684        H  0.90454164  0.31317576  0.97294912     0.08600
O685        O  0.86362092  0.18397921  0.93392541    -0.40200
O686        O  0.85233541  0.19941998  0.99695356    -0.39400
O687        O  0.92993492  0.28171083  0.04029383    -0.39400
O688        O  0.94022419  0.27272149  0.97343891    -0.37100
O689        O  0.89456670  0.37711979  0.92248809    -0.38000
O690        O  0.92070174  0.36931980  0.95482690    -0.34100
O691        O  0.89792654  0.23891941  0.82443971    -0.35500
O692        O  0.91799804  0.22616562  0.87447756    -0.39800
C693        C  0.97351168  0.15387808  0.20433203    -0.13500
C694        C  0.98306293  0.12724792  0.20110068     0.16900
C695        C  0.97335021  0.10115271  0.19119681     0.03100
C696        C  0.95445987  0.10218178  0.18412370    -0.12000
C697        C  0.94487207  0.12896161  0.18596629    -0.03100
C698        C  0.95460983  0.15498796  0.19707861     0.02400
C699        C  0.00301926  0.12685287  0.21004313     0.09200
N700        N  0.98260720  0.07363960  0.18627890     0.65600
H701        H  0.94741572  0.08193892  0.17536155     0.18500
N702        N  0.94552117  0.18259258  0.20221604     0.76100
H703        H  0.98074889  0.17390948  0.21330926     0.10000
C704        C  0.01524383  0.14497867  0.18585907     0.03700
C705        C  0.03393152  0.14445131  0.19570867    -0.05000
C706        C  0.04082826  0.12573385  0.22891697    -0.23400
C707        C  0.02861038  0.10739012  0.25304338     0.13000
C708        C  0.00984246  0.10855351  0.24389824    -0.12500
N709        N  0.00891792  0.16353523  0.15052564     0.64600
H710        H  0.04311842  0.15877014  0.17716927     0.12500
N711        N  0.03505359  0.08672416  0.28561751     0.61300
H712        H  0.00053342  0.09466893  0.26281486     0.08600
O713        O  0.94924170  0.20375090  0.17627296    -0.40200
O714        O  0.93563267  0.18698904  0.23604092    -0.39400
O715        O  0.97783927  0.05167662  0.20955755    -0.39400
O716        O  0.99426986  0.07046026  0.15564434    -0.37100
O717        O  0.04725724  0.06837902  0.27539291    -0.38000
O718        O  0.02737586  0.08491729  0.32326308    -0.34100
O719        O  0.01122589  0.19108503  0.15270651    -0.35500
O720        O  0.00251014  0.15223354  0.11540561    -0.39800
C721        C  0.78918148  0.12965803  0.00989229    -0.13500
C722        C  0.77489235  0.13493873  0.03992651     0.16900
C723        C  0.77869885  0.13670480  0.08580890     0.03100
C724        C  0.79663106  0.13329075  0.10099994    -0.12000
C725        C  0.81112644  0.12820418  0.07111817    -0.03100
C726        C  0.80715522  0.12597993  0.02494274     0.02400
C727        C  0.75587194  0.13617368  0.02323062     0.09200
N728        N  0.76451658  0.14284264  0.11722379     0.65600
H729        H  0.79921658  0.13534480  0.13643191     0.18500
N730        N  0.82101150  0.11910327  0.99297470     0.76100
H731        H  0.78625727  0.12749073  0.97461151     0.10000
C732        C  0.75029634  0.15783386  0.99265069     0.03700
C733        C  0.73248401  0.15717048  0.97550685    -0.05000
C734        C  0.71966913  0.13544777  0.98897490    -0.23400
C735        C  0.72570607  0.11327368  0.01922931     0.13000
C736        C  0.74352725  0.11411574  0.03609003    -0.12500
N737        N  0.76248131  0.18110896  0.97955844     0.64600
H738        H  0.72906644  0.17398074  0.95159627     0.12500
N739        N  0.71394735  0.08978737  0.03385388     0.61300
H740        H  0.74790193  0.09695222  0.05885992     0.08600
O741        O  0.82504835  0.13744557  0.96275578    -0.40200
O742        O  0.82725707  0.09326109  0.99102768    -0.39400
O743        O  0.76017413  0.12388466  0.14629549    -0.39400
O744        O  0.75746860  0.16814828  0.11844892    -0.37100
O745        O  0.71108694  0.06810462  0.00848884    -0.38000
O746        O  0.71053130  0.08706579  0.07493914    -0.34100
O747        O  0.76608250  0.18530754  0.93885026    -0.35500
O748        O  0.76854001  0.19889179  0.00835864    -0.39800
C749        C  0.50927751  0.15400276  0.31545435    -0.13500
C750        C  0.50157186  0.12737162  0.33018418     0.16900
C751        C  0.51275512  0.10257612  0.33606896     0.03100
C752        C  0.53155098  0.10505282  0.32850096    -0.12000
C753        C  0.53944805  0.13190806  0.31555937    -0.03100
C754        C  0.52810618  0.15652107  0.30721554     0.02400
C755        C  0.48187939  0.12617046  0.34065857     0.09200
N756        N  0.50507968  0.07466102  0.34849978     0.65600
H757        H  0.54000683  0.08569303  0.33102030     0.18500
N758        N  0.53526362  0.18397504  0.29031183     0.76100
H759        H  0.50052483  0.17287608  0.31018221     0.10000
C760        C  0.47564593  0.12324387  0.38497797     0.03700
C761        C  0.45683633  0.12217757  0.39331039    -0.05000
C762        C  0.44396799  0.12475461  0.35861031    -0.23400
C763        C  0.45039775  0.12737865  0.31423526     0.13000
C764        C  0.46922325  0.12799097  0.30575561    -0.12500
N765        N  0.48814328  0.12224195  0.42192591     0.64600
H766        H  0.45230372  0.12015786  0.42759695     0.12500
N767        N  0.43811404  0.12986320  0.27742625     0.61300
H768        H  0.47402244  0.13013308  0.27167077     0.08600
O769        O  0.52835920  0.20800915  0.30287265    -0.40200
O770        O  0.54583060  0.18420469  0.25703972    -0.39400
O771        O  0.49540895  0.06044940  0.32106230    -0.39400
O772        O  0.50874424  0.06343520  0.38595809    -0.37100
O773        O  0.43169395  0.15472680  0.26718472    -0.38000
O774        O  0.43612644  0.10847701  0.25100949    -0.34100
O775        O  0.50145561  0.14002269  0.42383891    -0.35500
O776        O  0.48474423  0.10589566  0.45510591    -0.39800
C777        C  0.62710911  0.13438206  0.18223227    -0.13500
C778        C  0.61775479  0.13380288  0.14156184     0.16900
C779        C  0.59850090  0.13383226  0.14173179     0.03100
C780        C  0.58906766  0.13421309  0.18261283    -0.12000
C781        C  0.59838810  0.13366697  0.22395628    -0.03100
C782        C  0.61778918  0.13422835  0.22292331     0.02400
C783        C  0.62870688  0.13194040  0.09994022     0.09200
N784        N  0.58830997  0.13241735  0.10091002     0.65600
H785        H  0.57439686  0.13422697  0.18090914     0.18500
N786        N  0.62839742  0.13467503  0.26298219     0.76100
H787        H  0.64192459  0.13465740  0.18241574     0.10000
C788        C  0.62823137  0.15368204  0.06597141     0.03700
C789        C  0.64008572  0.15122491  0.02919181    -0.05000
C790        C  0.65274736  0.12820546  0.02662573    -0.23400
C791        C  0.65254560  0.10575751  0.05934603     0.13000
C792        C  0.64054243  0.10794946  0.09551924    -0.12500
N793        N  0.61684620  0.17924140  0.06967166     0.64600
H794        H  0.64047722  0.16865110  0.00438447     0.12500
N795        N  0.66460641  0.08090552  0.05664970     0.61300
H796        H  0.64056935  0.09091642  0.12094869     0.08600
O797        O  0.63490116  0.11084516  0.27761678    -0.40200
O798        O  0.63534314  0.15873646  0.27575461    -0.39400
O799        O  0.59195427  0.11302985  0.07216650    -0.39400
O800        O  0.57449592  0.14856106  0.09546570    -0.37100
O801        O  0.66800323  0.06915410  0.01945441    -0.38000
O802        O  0.67044060  0.06880623  0.09179238    -0.34100
O803        O  0.61614953  0.19341903  0.10580518    -0.35500
O804        O  0.60921627  0.18973236  0.03543043    -0.39800
C805        C  0.71852290  0.40696550  0.53968410    -0.13500
C806        C  0.73061916  0.38467111  0.55244865     0.16900
C807        C  0.72491742  0.36328873  0.58407098     0.03100
C808        C  0.70678324  0.36347215  0.59950197    -0.12000
C809        C  0.69449296  0.38531736  0.58569668    -0.03100
C810        C  0.70062368  0.40754023  0.55604723     0.02400
C811        C  0.74853598  0.38284408  0.52943825     0.09200
N812        N  0.73740107  0.34170380  0.60123575     0.65600
H813        H  0.70235912  0.34686529  0.62328353     0.18500
N814        N  0.68852459  0.42978942  0.54000431     0.76100
H815        H  0.72279073  0.42338075  0.51541257     0.10000
C816        C  0.75324005  0.35815292  0.50347863     0.03700
C817        C  0.77048862  0.35695945  0.48315122    -0.05000
C818        C  0.78326700  0.38028399  0.48691410    -0.23400
C819        C  0.77833376  0.40489270  0.51361928     0.13000
C820        C  0.76107568  0.40603704  0.53382214    -0.12500
N821        N  0.74056544  0.33425679  0.49689161     0.64600
H822        H  0.77359735  0.33723956  0.46489469     0.12500
N823        N  0.79072607  0.42890565  0.52118398     0.61300
H824        H  0.75758692  0.42495813  0.55406172     0.08600
O825        O  0.67781766  0.42414408  0.50815032    -0.40200
O826        O  0.69014475  0.45593689  0.55375919    -0.39400
O827        O  0.75363376  0.34894585  0.61056710    -0.39400
O828        O  0.73173999  0.31626249  0.61171175    -0.37100
O829        O  0.78693688  0.45409680  0.50595253    -0.38000
O830        O  0.80271272  0.42670335  0.55120299    -0.34100
O831        O  0.72430987  0.33939654  0.48532906    -0.35500
O832        O  0.74600646  0.30792341  0.49865872    -0.39800
C833        C  0.64538392  0.48491276  0.82940065    -0.13500
C834        C  0.65122747  0.01127184  0.81547087     0.16900
C835        C  0.65183963  0.01509450  0.76874802     0.03100
C836        C  0.64510856  0.49315962  0.73716488    -0.12000
C837        C  0.64115943  0.46502076  0.75458373    -0.03100
C838        C  0.64112682  0.46104839  0.80139095     0.02400
C839        C  0.65816740  0.03477648  0.84565597     0.09200
N840        N  0.65659704  0.04302380  0.74918945     0.65600
H841        H  0.64470935  0.49686686  0.70145420     0.18500
N842        N  0.63791721  0.43266396  0.82092555     0.76100
H843        H  0.64614029  0.48130162  0.86509475     0.10000
C844        C  0.64753938  0.04637464  0.88064177     0.03700
C845        C  0.65451053  0.06952236  0.90665431    -0.05000
C846        C  0.67187143  0.08176483  0.89816024    -0.23400
C847        C  0.68271007  0.06949588  0.86372689     0.13000
C848        C  0.67586109  0.04592003  0.83865364    -0.12500
N849        N  0.62951648  0.03539956  0.88948735     0.64600
H850        H  0.64620075  0.07807892  0.93353894     0.12500
N851        N  0.70041034  0.08111183  0.85254846     0.61300
H852        H  0.68425456  0.03677014  0.81235150     0.08600
O853        O  0.62519214  0.42919023  0.84893094    -0.40200
O854        O  0.64919204  0.41213684  0.81464229    -0.39400
O855        O  0.66757794  0.04425807  0.71672181    -0.39400
O856        O  0.64886326  0.06627295  0.76221333    -0.37100
O857        O  0.70236965  0.10804188  0.84288177    -0.38000
O858        O  0.71377829  0.06391053  0.84804234    -0.34100
O859        O  0.62540313  0.02614451  0.92797214    -0.35500
O860        O  0.61731640  0.03697771  0.85987765    -0.39800
C861        C  0.63665913  0.27499022  0.82725140    -0.13500
C862        C  0.65040547  0.25489526  0.81592880     0.16900
C863        C  0.65909098  0.25750545  0.77415461     0.03100
C864        C  0.65391123  0.27981780  0.74451213    -0.12000
C865        C  0.64024988  0.30029073  0.75560496    -0.03100
C866        C  0.63140089  0.29741850  0.79751415     0.02400
C867        C  0.65528162  0.23065677  0.84715706     0.09200
N868        N  0.67371703  0.23828760  0.76205439     0.65600
H869        H  0.66106823  0.28150164  0.71294438     0.18500
N870        N  0.61668783  0.31633844  0.80992964     0.76100
H871        H  0.62967143  0.27280920  0.85899388     0.10000
C872        C  0.66244321  0.23649567  0.88989418     0.03700
C873        C  0.66824007  0.21308089  0.91697098    -0.05000
C874        C  0.66708437  0.18375457  0.90220204    -0.23400
C875        C  0.65897840  0.17785101  0.86049313     0.13000
C876        C  0.65321764  0.20125126  0.83337819    -0.12500
N877        N  0.66479171  0.26611394  0.90527794     0.64600
H878        H  0.67428904  0.21789224  0.94913814     0.12500
N879        N  0.65762291  0.14844096  0.84382703     0.61300
H880        H  0.64750006  0.19648077  0.80083777     0.08600
O881        O  0.61800596  0.33206541  0.84444696    -0.40200
O882        O  0.60144723  0.31392699  0.79057321    -0.39400
O883        O  0.67263347  0.22303383  0.72700747    -0.39400
O884        O  0.68839643  0.23858334  0.78410571    -0.37100
O885        O  0.64260628  0.13475276  0.84669916    -0.38000
O886        O  0.66981719  0.13897866  0.81787660    -0.34100
O887        O  0.65754037  0.27408742  0.94146682    -0.35500
O888        O  0.67527940  0.28363746  0.88462540    -0.39800
C889        C  0.59553199  0.48675581  0.46061726    -0.13500
C890        C  0.60555927  0.01194910  0.46401680     0.16900
C891        C  0.61950841  0.01470413  0.49625780     0.03100
C892        C  0.62349018  0.49154390  0.52328960    -0.12000
C893        C  0.61320182  0.46521687  0.52128177    -0.03100
C894        C  0.59912722  0.46298654  0.48909773     0.02400
C895        C  0.60098486  0.03633702  0.43276713     0.09200
N896        N  0.62959214  0.04173950  0.50139662     0.65600
H897        H  0.63421828  0.49396186  0.54789032     0.18500
N898        N  0.58829029  0.43684763  0.48474019     0.76100
H899        H  0.58473800  0.48465908  0.43607796     0.10000
C900        C  0.61361137  0.04779152  0.40154010     0.03700
C901        C  0.60842246  0.07127566  0.37365359    -0.05000
C902        C  0.59060013  0.08308018  0.37451701    -0.23400
C903        C  0.57818013  0.07157392  0.40678943     0.13000
C904        C  0.58355115  0.04858344  0.43513268    -0.12500
N905        N  0.63146322  0.03522050  0.39659312     0.64600
H906        H  0.61840719  0.07989058  0.35029114     0.12500
N907        N  0.55974562  0.08132758  0.41067023     0.61300
H908        H  0.57385155  0.04002435  0.45936276     0.08600
O909        O  0.59202423  0.41843835  0.45464954    -0.40200
O910        O  0.57339813  0.43459074  0.50576271    -0.39400
O911        O  0.62131807  0.06605862  0.50287001    -0.39400
O912        O  0.64651461  0.04113359  0.50942037    -0.37100
O913        O  0.54725916  0.06292191  0.40208428    -0.38000
O914        O  0.55631034  0.10141163  0.43843468    -0.34100
O915        O  0.63335142  0.00759788  0.39494921    -0.35500
O916        O  0.64497571  0.55374483  0.38860248    -0.39800
C917        C  0.62063427  0.25258517  0.48855135    -0.13500
C918        C  0.60557492  0.25537304  0.46000269     0.16900
C919        C  0.59476729  0.28100649  0.46245408     0.03100
C920        C  0.59897076  0.30283296  0.49392556    -0.12000
C921        C  0.61412799  0.30023784  0.52249754    -0.03100
C922        C  0.62513799  0.27474724  0.51911624     0.02400
C923        C  0.60074553  0.23061921  0.42968060     0.09200
N924        N  0.57975256  0.28551814  0.43254295     0.65600
H925        H  0.59045370  0.32225759  0.49531342     0.18500
N926        N  0.64088897  0.27076746  0.54655274     0.76100
H927        H  0.62890271  0.23286133  0.48742339     0.10000
C928        C  0.61355948  0.21861441  0.39973762     0.03700
C929        C  0.60843029  0.19506379  0.37225669    -0.05000
C930        C  0.59051846  0.18349911  0.37263799    -0.23400
C931        C  0.57795040  0.19488111  0.40401606     0.13000
C932        C  0.58320701  0.21806101  0.43214116    -0.12500
N933        N  0.63163813  0.23066614  0.39573407     0.64600
H934        H  0.61854389  0.18615748  0.34970510     0.12500
N935        N  0.55961205  0.18417364  0.40707427     0.61300
H936        H  0.57339284  0.22656140  0.45588594     0.08600
O937        O  0.65636256  0.27910869  0.53263352    -0.40200
O938        O  0.63976819  0.25519051  0.58139435    -0.39400
O939        O  0.56463499  0.29460748  0.44723368    -0.39400
O940        O  0.58203021  0.28292181  0.39099225    -0.37100
O941        O  0.55486468  0.16944709  0.44098042    -0.38000
O942        O  0.54745343  0.19612394  0.38356625    -0.34100
O943        O  0.64531015  0.21384800  0.39672692    -0.35500
O944        O  0.63389213  0.25768087  0.38699210    -0.39800
C945        C  0.49004299  0.35695630  0.68968447    -0.13500
C946        C  0.50071886  0.37825265  0.71146560     0.16900
C947        C  0.49248055  0.39724690  0.74270625     0.03100
C948        C  0.47382719  0.39398788  0.75234358    -0.12000
C949        C  0.46306124  0.37300322  0.72998943    -0.03100
C950        C  0.47133806  0.35403146  0.69886468     0.02400
C951        C  0.52052386  0.37988163  0.70162949     0.09200
N952        N  0.50259589  0.42091109  0.76285271     0.65600
H953        H  0.46744592  0.40914698  0.77540524     0.18500
N954        N  0.46114791  0.33075680  0.67817950     0.76100
H955        H  0.49640854  0.34205717  0.66620881     0.10000
C956        C  0.53374977  0.37322485  0.73426029     0.03700
C957        C  0.55238392  0.37583444  0.72376299    -0.05000
C958        C  0.55814893  0.38444873  0.68085284    -0.23400
C959        C  0.54473331  0.39167626  0.64863694     0.13000
C960        C  0.52616578  0.38902615  0.65917788    -0.12500
N961        N  0.52845954  0.36259386  0.77746169     0.64600
H962        H  0.56237370  0.36990826  0.74882371     0.12500
N963        N  0.54967073  0.40273023  0.60553717     0.61300
H964        H  0.51604296  0.39475186  0.63429841     0.08600
O965        O  0.45293561  0.31194232  0.70208609    -0.40200
O966        O  0.46233612  0.32666659  0.63665552    -0.39400
O967        O  0.51206031  0.43809793  0.73885959    -0.39400
O968        O  0.50019000  0.42704992  0.80347253    -0.37100
O969        O  0.54593358  0.38791406  0.57113653    -0.38000
O970        O  0.55531940  0.42894312  0.60148479    -0.34100
O971        O  0.51866738  0.33969705  0.78094335    -0.35500
O972        O  0.53517667  0.37408550  0.81209923    -0.39800
Zn973      Zn  0.64127294  0.91815556  0.63062001     1.49700
Zn974      Zn  0.61768588  0.88253186  0.70414423     1.49400
Zn975      Zn  0.60660537  0.88201196  0.59950204     1.49100
Zn976      Zn  0.64226942  0.84799983  0.63286592     1.49500
O977        O  0.62686929  0.88260338  0.64209566    -1.83300
O978        O  0.64369031  0.94199292  0.68643386    -0.73900
O979        O  0.58985283  0.88344388  0.70457639    -0.73700
O980        O  0.60684768  0.91760978  0.55821119    -0.73300
O981        O  0.62713517  0.91855987  0.73769827    -0.73900
O982        O  0.63004153  0.94409414  0.58353537    -0.73500
O983        O  0.58272986  0.88268449  0.63259414    -0.74100
O984        O  0.63176428  0.82163513  0.58525181    -0.73500
O985        O  0.62614020  0.84588641  0.73799519    -0.74300
O986        O  0.60715109  0.84517541  0.56175706    -0.73700
O987        O  0.64400667  0.82364971  0.68892139    -0.74100
O988        O  0.66772618  0.85950541  0.61273000    -0.74000
O989        O  0.66639942  0.90831019  0.60843621    -0.73800
C990        C  0.63742528  0.94003950  0.72599676     0.78000
C991        C  0.57796162  0.88349474  0.67343881     0.78500
C992        C  0.61672983  0.94080358  0.55669264     0.77400
C993        C  0.61789346  0.82319091  0.55982285     0.77800
C994        C  0.63677782  0.82480025  0.72757131     0.78900
C995        C  0.67502418  0.88430226  0.60318760     0.78000
C996        C  0.58828240  0.63417163  0.26979896     0.87300
C997        C  0.59287493  0.60727371  0.29888095    -0.52900
C998        C  0.58535152  0.60730001  0.34078575     0.10200
C999        C  0.57324099  0.63450189  0.34900820     0.21200
C1000       C  0.56726914  0.63425187  0.26894901    -0.53600
C1001       C  0.55943338  0.63494997  0.31008447     0.10300
C1002       C  0.59328169  0.66114485  0.29835724    -0.53200
C1003       C  0.58583200  0.66125711  0.34025032     0.10900
H1004       H  0.60149691  0.58958523  0.28690683     0.15400
H1005       H  0.56695054  0.63473258  0.38217835     0.01200
H1006       H  0.55882419  0.63361277  0.23942592     0.15700
H1007       H  0.60209729  0.67873692  0.28619448     0.15500
C1008       C  0.69993823  0.63296644  0.97197029     0.87300
C1009       C  0.69588672  0.60750887  0.93963989    -0.52900
C1010       C  0.67811326  0.60573941  0.92570558     0.10200
C1011       C  0.66587954  0.63007500  0.94537403     0.21200
C1012       C  0.69329955  0.66057441  0.94635239    -0.53600
C1013       C  0.67551702  0.65911730  0.93249943     0.10300
C1014       C  0.68603955  0.62917363  0.00978008    -0.53200
C1015       C  0.66831702  0.62739674  0.99610897     0.10900
H1016       H  0.70621788  0.59191875  0.92938891     0.15400
H1017       H  0.65137252  0.62895276  0.93486942     0.01200
H1018       H  0.70169345  0.67943914  0.93777519     0.15700
H1019       H  0.68989016  0.62843925  0.04474964     0.15500
Zn1020     Zn  0.89179736  0.59348061  0.14873815     1.49700
Zn1021     Zn  0.89152055  0.66428987  0.14519738     1.49400
Zn1022     Zn  0.87075807  0.62661663  0.07013891     1.49100
Zn1023     Zn  0.85515876  0.62878989  0.17062172     1.49500
O1024       O  0.87729107  0.62828186  0.13362982    -1.83300
O1025       O  0.91700178  0.60562624  0.16906601    -0.73900
O1026       O  0.89329122  0.68947966  0.08981935    -0.73700
O1027       O  0.88106049  0.59002752  0.04033589    -0.73300
O1028       O  0.91719589  0.65442636  0.16475002    -0.73900
O1029       O  0.89512098  0.56667184  0.09529286    -0.73500
O1030       O  0.87965945  0.66306105  0.03719789    -0.74100
O1031       O  0.83261640  0.62823943  0.13198813    -0.73500
O1032       O  0.87969629  0.68962026  0.19248243    -0.74300
O1033       O  0.84338779  0.62600784  0.06290565    -0.73700
O1034       O  0.85401402  0.66574382  0.20823421    -0.74100
O1035       O  0.85408599  0.59344709  0.21219303    -0.74000
O1036       O  0.87973805  0.56954356  0.19777563    -0.73800
C1037       C  0.92530928  0.63026160  0.17307247     0.78000
C1038       C  0.88799725  0.68637052  0.04963586     0.78500
C1039       C  0.89026194  0.56811491  0.05455752     0.77400
C1040       C  0.83000075  0.62711143  0.09000270     0.77800
C1041       C  0.86465695  0.68778582  0.21374346     0.78900
C1042       C  0.86479830  0.57190181  0.21937669     0.78000
C1043       C  0.91254992  0.87998062  0.76026334     0.87300
C1044       C  0.90815525  0.90690591  0.78991364    -0.52900
C1045       C  0.91578447  0.90591144  0.83147852     0.10200
C1046       C  0.92744955  0.87835498  0.83958207     0.21200
C1047       C  0.93348099  0.87905124  0.75968194    -0.53600
C1048       C  0.94130638  0.87788456  0.80085527     0.10300
C1049       C  0.90647717  0.85352191  0.78931372    -0.53200
C1050       C  0.91426811  0.85243542  0.83078659     0.10900
H1051       H  0.89960362  0.92518273  0.78042427     0.15400
H1052       H  0.93410514  0.87787781  0.87273263     0.01200
H1053       H  0.94148041  0.87960398  0.72915997     0.15700
H1054       H  0.89656030  0.83727085  0.77813343     0.15500
C1055       C  0.80177377  0.87872253  0.46553668     0.87300
C1056       C  0.80794345  0.90646038  0.43979196    -0.52900
C1057       C  0.82562278  0.90581937  0.42471275     0.10200
C1058       C  0.83551587  0.87684049  0.43642444     0.21200
C1059       C  0.80553429  0.85343890  0.43225801    -0.53600
C1060       C  0.82314237  0.85251077  0.41691488     0.10300
C1061       C  0.81606579  0.87443417  0.50204812    -0.53200
C1062       C  0.83363690  0.87330084  0.48728249     0.10900
H1063       H  0.79889751  0.92483246  0.43321132     0.15400
H1064       H  0.84990814  0.87588080  0.42510200     0.01200
H1065       H  0.79557055  0.83735243  0.42136138     0.15700
H1066       H  0.81250213  0.87247559  0.53711773     0.15500
Zn1067     Zn  0.36121285  0.59030059  0.41908850     1.49700
Zn1068     Zn  0.39710920  0.62516797  0.44776572     1.49400
Zn1069     Zn  0.38421000  0.62629871  0.34463243     1.49100
Zn1070     Zn  0.36196873  0.66081075  0.42007137     1.49500
O1071       O  0.37611312  0.62549514  0.40747490    -1.83300
O1072       O  0.37353991  0.56352597  0.46368258    -0.73900
O1073       O  0.42003173  0.62524897  0.41222696    -0.73700
O1074       O  0.37502824  0.59000571  0.31142992    -0.73300
O1075       O  0.39785834  0.58858686  0.48584821    -0.73900
O1076       O  0.35870852  0.56600628  0.36284863    -0.73500
O1077       O  0.41195859  0.62632075  0.34102651    -0.74100
O1078       O  0.35824773  0.68519751  0.36472438    -0.73500
O1079       O  0.39822216  0.66106038  0.48749760    -0.74300
O1080       O  0.37490687  0.66305717  0.31294535    -0.73700
O1081       O  0.37459785  0.68708398  0.46445006    -0.74100
O1082       O  0.33762554  0.65020406  0.44685157    -0.74000
O1083       O  0.33636674  0.60137650  0.44507789    -0.73800
C1084       C  0.38780174  0.56562275  0.48770546     0.78000
C1085       C  0.42426373  0.62574671  0.37108036     0.78500
C1086       C  0.36529012  0.56796735  0.32350550     0.77400
C1087       C  0.36460427  0.68414856  0.32518479     0.77800
C1088       C  0.38857441  0.68426926  0.48927312     0.78900
C1089       C  0.32923901  0.62611536  0.45513018     0.78000
C1090       C  0.41354970  0.87615454  0.77774152     0.87300
C1091       C  0.40763254  0.85036533  0.74779490    -0.52900
C1092       C  0.41559904  0.84999930  0.70648014     0.10200
C1093       C  0.42920917  0.87565027  0.69914954     0.21200
C1094       C  0.43460379  0.87374101  0.77931876    -0.53600
C1095       C  0.44273272  0.87334575  0.73830528     0.10300
C1096       C  0.41029290  0.90401282  0.74975900    -0.53200
C1097       C  0.41820789  0.90388421  0.70847961     0.10900
H1098       H  0.39794762  0.83364629  0.75875343     0.15400
H1099       H  0.43602417  0.87541821  0.66616611     0.01200
H1100       H  0.44280667  0.87267559  0.80921664     0.15700
H1101       H  0.40227573  0.92242452  0.76177989     0.15500
C1102       C  0.30115373  0.87658727  0.07935238     0.87300
C1103       C  0.30651554  0.84832888  0.10430859    -0.52900
C1104       C  0.32453366  0.84688997  0.11637049     0.10200
C1105       C  0.33566671  0.87452519  0.10244130     0.21200
C1106       C  0.30726479  0.90168636  0.11076319    -0.53600
C1107       C  0.32520548  0.90054438  0.12299776     0.10300
C1108       C  0.31460763  0.87917786  0.04020073    -0.53200
C1109       C  0.33258455  0.87771310  0.05184609     0.10900
H1110       H  0.29653205  0.83162444  0.11359339     0.15400
H1111       H  0.35030097  0.87398012  0.11204468     0.01200
H1112       H  0.29878124  0.91974683  0.12161604     0.15700
H1113       H  0.31027383  0.88230250  0.00590238     0.15500
Zn1114     Zn  0.13913786  0.91397575  0.92302992     1.49700
Zn1115     Zn  0.13865858  0.84386497  0.92149687     1.49400
Zn1116     Zn  0.10286238  0.87851424  0.94854964     1.49100
Zn1117     Zn  0.11685143  0.87978885  0.84613385     1.49500
O1118       O  0.12432603  0.87910351  0.90946546    -1.83300
O1119       O  0.16413225  0.90297922  0.94648977    -0.73900
O1120       O  0.12611823  0.81697304  0.96558970    -0.73700
O1121       O  0.10216029  0.91395682  0.98924697    -0.73300
O1122       O  0.16327965  0.85418123  0.94711373    -0.73900
O1123       O  0.12719132  0.93867390  0.97031087    -0.73500
O1124       O  0.10161246  0.84166994  0.98655301    -0.74100
O1125       O  0.08908991  0.87925487  0.84093343    -0.73500
O1126       O  0.14244305  0.82056971  0.86554109    -0.74300
O1127       O  0.08015167  0.87935928  0.91162604    -0.73700
O1128       O  0.12707768  0.84417171  0.81287077    -0.74100
O1129       O  0.12590282  0.91739259  0.81565798    -0.74000
O1130       O  0.14177113  0.93995576  0.86871025    -0.73800
C1131       C  0.17159695  0.87829956  0.95515228     0.78000
C1132       C  0.11168327  0.81895287  0.98911096     0.78500
C1133       C  0.11274029  0.93612866  0.99373367     0.77400
C1134       C  0.07640803  0.87947531  0.87015839     0.77800
C1135       C  0.13707284  0.82267486  0.82531469     0.78900
C1136       C  0.13555057  0.93916629  0.82905161     0.78000
C1137       C  0.08947765  0.62804125  0.28078825     0.87300
C1138       C  0.09412324  0.65476661  0.25104706    -0.52900
C1139       C  0.08695760  0.65347738  0.20896303     0.10200
C1140       C  0.07531839  0.62572841  0.20074358     0.21200
C1141       C  0.06834148  0.62717452  0.27999160    -0.53600
C1142       C  0.06097718  0.62570475  0.23818759     0.10300
C1143       C  0.09516347  0.60085006  0.25345251    -0.53200
C1144       C  0.08790112  0.59969663  0.21151045     0.10900
H1145       H  0.10215140  0.67340856  0.26259508     0.15400
H1146       H  0.06921031  0.62475314  0.16696539     0.01200
H1147       H  0.05959366  0.62903189  0.30885356     0.15700
H1148       H  0.10392726  0.58370727  0.26668802     0.15500
C1149       C  0.19955658  0.63269516  0.57712391     0.87300
C1150       C  0.19360442  0.65927023  0.60524380    -0.52900
C1151       C  0.17618299  0.65737314  0.62184920     0.10200
C1152       C  0.16604010  0.62893041  0.60797830     0.21200
C1153       C  0.19590997  0.60550773  0.60665403    -0.53600
C1154       C  0.17848240  0.60337806  0.62327339     0.10300
C1155       C  0.18467195  0.63065125  0.54080474    -0.53200
C1156       C  0.16729147  0.62853947  0.55687232     0.10900
H1157       H  0.20233998  0.67827092  0.61091473     0.15400
H1158       H  0.15177719  0.62757080  0.62048060     0.01200
H1159       H  0.20618015  0.58878256  0.61220220     0.15700
H1160       H  0.18668125  0.63099760  0.50606075     0.15500
C1161       C  0.12550371  0.64454235  0.48620361    -0.13500
C1162       C  0.12729504  0.62275717  0.45320750     0.16900
C1163       C  0.14063985  0.60074360  0.45844195     0.03100
C1164       C  0.15273114  0.60204647  0.49436367    -0.12000
C1165       C  0.15178446  0.62487141  0.52568083    -0.03100
C1166       C  0.13771098  0.64580734  0.52234238     0.02400
C1167       C  0.11714952  0.62542325  0.41051632     0.09200
N1168       N  0.14246098  0.57753783  0.42651822     0.65600
H1169       H  0.16342062  0.58567298  0.49698885     0.18500
N1170       N  0.13689578  0.67015277  0.55242002     0.76100
H1171       H  0.11547045  0.66181637  0.48217540     0.10000
C1172       C  0.09799095  0.62472469  0.40859335     0.03700
C1173       C  0.08910566  0.62656967  0.36718809    -0.05000
C1174       C  0.09899779  0.62894853  0.32665776    -0.23400
C1175       C  0.11837028  0.63054853  0.32950760     0.13000
C1176       C  0.12708332  0.62892764  0.37093680    -0.12500
N1177       N  0.08737977  0.62072365  0.44826971     0.64600
H1178       H  0.07445006  0.62484265  0.36783368     0.12500
N1179       N  0.12962977  0.63283848  0.29062272     0.61300
H1180       H  0.14187512  0.63010970  0.37213827     0.08600
O1181       O  0.12364771  0.67237250  0.57914369    -0.40200
O1182       O  0.14800157  0.69135657  0.54809211    -0.39400
O1183       O  0.15746932  0.57372560  0.40662945    -0.39400
O1184       O  0.12948313  0.55954764  0.42051009    -0.37100
O1185       O  0.13883109  0.61070785  0.27906695    -0.38000
O1186       O  0.13473635  0.65804792  0.27756725    -0.34100
O1187       O  0.07613970  0.64019780  0.46007378    -0.35500
O1188       O  0.08825589  0.59680518  0.46974103    -0.39800
C1189       C  0.15833523  0.75400821  0.77369789    -0.13500
C1190       C  0.14954564  0.75272741  0.73228864     0.16900
C1191       C  0.13689366  0.77489624  0.72081303     0.03100
C1192       C  0.13352112  0.79799613  0.75094726    -0.12000
C1193       C  0.14217555  0.79916529  0.79285775    -0.03100
C1194       C  0.15489019  0.77682679  0.80377900     0.02400
C1195       C  0.15473633  0.72873198  0.70116344     0.09200
N1196       N  0.12702750  0.77383324  0.67946497     0.65600
H1197       H  0.12357464  0.81458759  0.74206833     0.18500
N1198       N  0.16474854  0.77712901  0.84491794     0.76100
H1199       H  0.16827035  0.73733707  0.78245764     0.10000
C1200       C  0.16410652  0.73453542  0.66084142     0.03700
C1201       C  0.17040926  0.71091067  0.63498880    -0.05000
C1202       C  0.16785749  0.68149275  0.64871012    -0.23400
C1203       C  0.15779644  0.67581097  0.68810386     0.13000
C1204       C  0.15132797  0.69939639  0.71373190    -0.12500
N1205       N  0.16799901  0.76414100  0.64658164     0.64600
H1206       H  0.17781903  0.71561367  0.60444899     0.12500
N1207       N  0.15518049  0.64643456  0.70445541     0.61300
H1208       H  0.14418878  0.69480273  0.74470627     0.08600
O1209       O  0.17947009  0.79161896  0.84782324    -0.40200
O1210       O  0.16025058  0.75961034  0.87586036    -0.39400
O1211       O  0.12014484  0.74986045  0.66606844    -0.39400
O1212       O  0.12365432  0.79731649  0.65841830    -0.37100
O1213       O  0.16879766  0.63176702  0.71721852    -0.38000
O1214       O  0.13930345  0.63735748  0.71391280    -0.34100
O1215       O  0.17543003  0.78221723  0.67297653    -0.35500
O1216       O  0.16578770  0.77135576  0.60625900    -0.39800
C1217       C  0.15147383  0.01349951  0.78292696    -0.13500
C1218       C  0.15171746  0.50676184  0.73415073     0.16900
C1219       C  0.14414326  0.98128794  0.72082643     0.03100
C1220       C  0.13854198  0.95945574  0.75148431    -0.12000
C1221       C  0.13981651  0.96395314  0.79782434    -0.03100
C1222       C  0.14600433  0.99171489  0.81339523     0.02400
C1223       C  0.15836401  0.53059095  0.70396552     0.09200
N1224       N  0.14386332  0.97474396  0.67397053     0.65600
H1225       H  0.13397714  0.93829141  0.73892201     0.18500
N1226       N  0.14646790  0.99849206  0.85999299     0.76100
H1227       H  0.15439996  0.53434033  0.79216790     0.10000
C1228       C  0.14712159  0.54379885  0.67141908     0.03700
C1229       C  0.15408298  0.56698899  0.64502478    -0.05000
C1230       C  0.17192348  0.57800622  0.65126844    -0.23400
C1231       C  0.18309542  0.56448976  0.68397755     0.13000
C1232       C  0.17628803  0.54087009  0.70930768    -0.12500
N1233       N  0.12846972  0.53471392  0.66595913     0.64600
H1234       H  0.14534467  0.57670211  0.61991234     0.12500
N1235       N  0.20098709  0.57543775  0.69403692     0.61300
H1236       H  0.18492689  0.53099038  0.73453431     0.08600
O1237       O  0.13172531  0.00088447  0.88154537    -0.40200
O1238       O  0.16136946  0.00567907  0.87822830    -0.39400
O1239       O  0.15741072  0.98121959  0.64966268    -0.39400
O1240       O  0.13615804  0.45559242  0.65349017    -0.37100
O1241       O  0.20288577  0.60112538  0.70943580    -0.38000
O1242       O  0.21433294  0.55794845  0.69505996    -0.34100
O1243       O  0.11771039  0.53489659  0.69890011    -0.35500
O1244       O  0.11995937  0.03607583  0.63188138    -0.39800
C1245       C  0.08709579  0.77088580  0.07570716    -0.13500
C1246       C  0.10007109  0.74877780  0.08317350     0.16900
C1247       C  0.11653866  0.74934903  0.05862766     0.03100
C1248       C  0.11968582  0.77184418  0.02739051    -0.12000
C1249       C  0.10691031  0.79446541  0.02041764    -0.03100
C1250       C  0.09030881  0.79358328  0.04477331     0.02400
C1251       C  0.09594588  0.72459836  0.11532098     0.09200
N1252       N  0.13049111  0.72785989  0.06617664     0.65600
H1253       H  0.13256688  0.77205437  0.00953986     0.18500
N1254       N  0.07638075  0.81511457  0.03802373     0.73300
H1255       H  0.07420745  0.77025039  0.09353593     0.10000
C1256       C  0.09122477  0.73043440  0.16007539     0.03700
C1257       C  0.08792489  0.70696844  0.18956404    -0.05000
C1258       C  0.08948780  0.67754106  0.17561676    -0.23400
C1259       C  0.09356707  0.67176798  0.13040119     0.13000
C1260       C  0.09660886  0.69523636  0.10078936    -0.12500
N1261       N  0.09030672  0.76000953  0.17645299     0.64600
H1262       H  0.08443719  0.71181711  0.22389588     0.12500
N1263       N  0.09573301  0.64234814  0.11438447     0.61300
H1264       H  0.09990071  0.69047248  0.06630468     0.08600
O1265       O  0.07202108  0.83218425  0.06940365    -0.40200
O1266       O  0.06670627  0.81423037  0.00322560    -0.39400
O1267       O  0.13774688  0.71478153  0.03360182    -0.39400
O1268       O  0.13672621  0.72385215  0.10494886    -0.37100
O1269       O  0.08448382  0.63213967  0.08645596    -0.38000
O1270       O  0.11084773  0.62962267  0.11964034    -0.34100
O1271       O  0.07603672  0.76886697  0.19578663    -0.35500
O1272       O  0.10420248  0.77658716  0.17466456    -0.39800
C1273       C  0.09086235  0.97980060  0.08849533    -0.13500
C1274       C  0.09979313  0.50720056  0.08138844     0.16900
C1275       C  0.11307047  0.51104221  0.04761496     0.03100
C1276       C  0.11681870  0.98752601  0.02117814    -0.12000
C1277       C  0.10814277  0.95993582  0.02587138    -0.03100
C1278       C  0.09494176  0.95624568  0.06001911     0.02400
C1279       C  0.09641158  0.53053505  0.11510923     0.09200
N1280       N  0.12195425  0.53898171  0.04075649     0.65600
H1281       H  0.12666174  0.99109782  0.99465029     0.18500
N1282       N  0.08603860  0.92850430  0.06742485     0.76100
H1283       H  0.08119812  0.97633522  0.11544810     0.10000
C1284       C  0.07876267  0.54159062  0.12345799     0.03700
C1285       C  0.07633966  0.56367507  0.15555831    -0.05000
C1286       C  0.09122693  0.57529588  0.17943765    -0.23400
C1287       C  0.10884037  0.56364999  0.17179904     0.13000
C1288       C  0.11117292  0.54127068  0.14020957    -0.12500
N1289       N  0.06325590  0.53110895  0.09897371     0.64600
H1290       H  0.06271385  0.57202892  0.16151281     0.12500
N1291       N  0.12463331  0.57506879  0.19416405     0.61300
H1292       H  0.12473723  0.53258032  0.13450593     0.08600
O1293       O  0.06899521  0.92617357  0.06200681    -0.40200
O1294       O  0.09476189  0.90746059  0.08470949    -0.39400
O1295       O  0.13895796  0.54019021  0.03380772    -0.39400
O1296       O  0.11261947  0.56221262  0.03770539    -0.37100
O1297       O  0.12894844  0.60188974  0.18978956    -0.38000
O1298       O  0.13576226  0.55761384  0.21232462    -0.34100
O1299       O  0.04933313  0.52160558  0.11946198    -0.35500
O1300       O  0.06188698  0.03108721  0.06171062    -0.39800
C1301       C  0.21585038  0.85209886  0.00937127    -0.13500
C1302       C  0.22595369  0.87839719  0.01187054     0.16900
C1303       C  0.21824368  0.90473218  0.99515192     0.03100
C1304       C  0.20040294  0.90417987  0.97785872    -0.12000
C1305       C  0.19025918  0.87777702  0.97508803    -0.03100
C1306       C  0.19828130  0.85146667  0.99109976     0.02400
C1307       C  0.24454570  0.87749098  0.03176659     0.09200
N1308       N  0.22847245  0.93189450  0.99406735     0.65600
H1309       H  0.19466889  0.92447662  0.96510580     0.18500
N1310       N  0.18880238  0.82384911  0.98949708     0.76100
H1311       H  0.22163404  0.83179408  0.02205449     0.10000
C1312       C  0.24975819  0.89556637  0.06791866     0.03700
C1313       C  0.26790923  0.89503168  0.08313199    -0.05000
C1314       C  0.28108853  0.87624009  0.06401490    -0.23400
C1315       C  0.27516900  0.85666650  0.02999580     0.13000
C1316       C  0.25729069  0.85796441  0.01380979    -0.12500
N1317       N  0.23674720  0.91400265  0.09027603     0.64600
H1318       H  0.27117030  0.90867456  0.11137167     0.12500
N1319       N  0.28703085  0.83491101  0.01162730     0.61300
H1320       H  0.25331297  0.84345498  0.98678776     0.08600
O1321       O  0.17849567  0.81628107  0.02135639    -0.40200
O1322       O  0.19279244  0.80533963  0.95974028    -0.39400
O1323       O  0.24503999  0.93206694  0.98227370    -0.39400
O1324       O  0.22049792  0.95613417  0.00037745    -0.37100
O1325       O  0.29205382  0.83726470  0.97147793    -0.38000
O1326       O  0.28782037  0.81003223  0.03033543    -0.34100
O1327       O  0.22099639  0.90425984  0.09955144    -0.35500
O1328       O  0.24151937  0.93903720  0.10459880    -0.39800
C1329       C  0.37398379  0.88198371  0.86231527    -0.13500
C1330       C  0.38299916  0.88148813  0.90351910     0.16900
C1331       C  0.40210153  0.87782933  0.90415248     0.03100
C1332       C  0.41178079  0.87524351  0.86387851    -0.12000
C1333       C  0.40291646  0.87686865  0.82208913    -0.03100
C1334       C  0.38359308  0.87992273  0.82207676     0.02400
C1335       C  0.37194725  0.88319748  0.94521988     0.09200
N1336       N  0.41198159  0.87760455  0.94538932     0.65600
H1337       H  0.42633884  0.87267039  0.86639855     0.18500
N1338       N  0.37338391  0.88115627  0.78141531     0.76100
H1339       H  0.35923349  0.88387749  0.86129314     0.10000
C1340       C  0.35879192  0.90553755  0.95117704     0.03700
C1341       C  0.34647963  0.90368386  0.98693040    -0.05000
C1342       C  0.34728392  0.88045901  0.01787694    -0.23400
C1343       C  0.36110203  0.85917628  0.01351095     0.13000
C1344       C  0.37315294  0.86050911  0.97711136    -0.12500
N1345       N  0.35772776  0.93010964  0.92107625     0.64600
H1346       H  0.33614044  0.92051419  0.99059386     0.12500
N1347       N  0.36204416  0.83463531  0.04333398     0.61300
H1348       H  0.38293658  0.84293017  0.97261955     0.08600
O1349       O  0.36761156  0.90573288  0.76776953    -0.40200
O1350       O  0.36609983  0.85787630  0.76662708    -0.39400
O1351       O  0.42329299  0.85737978  0.95339506    -0.39400
O1352       O  0.41051288  0.89883184  0.97226757    -0.37100
O1353       O  0.35357074  0.81119403  0.03387046    -0.38000
O1354       O  0.37419140  0.83416278  0.07314344    -0.34100
O1355       O  0.34241267  0.93873519  0.90698409    -0.35500
O1356       O  0.37196442  0.94447132  0.91085871    -0.39800
C1357       C  0.25251897  0.63741330  0.57623372    -0.13500
C1358       C  0.25651183  0.63500875  0.53073923     0.16900
C1359       C  0.24218834  0.63279551  0.50008326     0.03100
C1360       C  0.22401655  0.63234115  0.51483514    -0.12000
C1361       C  0.21959432  0.63451565  0.56082873    -0.03100
C1362       C  0.23432337  0.63722196  0.59148082     0.02400
C1363       C  0.27565904  0.63271688  0.51530081     0.09200
N1364       N  0.24584473  0.63064652  0.45327037     0.65600
H1365       H  0.21438931  0.63004370  0.49005891     0.18500
N1366       N  0.23123088  0.63872114  0.63851414     0.76100
H1367       H  0.26353066  0.63885995  0.60002524     0.10000
C1368       C  0.28654207  0.65793752  0.50862875     0.03700
C1369       C  0.30396304  0.65521351  0.48970253    -0.05000
C1370       C  0.31092908  0.62748722  0.47715268    -0.23400
C1371       C  0.30013846  0.60207082  0.48581961     0.13000
C1372       C  0.28261997  0.60496896  0.50425741    -0.12500
N1373       N  0.27982962  0.68654192  0.51964956     0.64600
H1374       H  0.31191753  0.67510593  0.48415285     0.12500
N1375       N  0.30666236  0.57316035  0.47616695     0.61300
H1376       H  0.27430382  0.58542646  0.50965356     0.08600
O1377       O  0.23027209  0.66364545  0.65692626    -0.40200
O1378       O  0.23492285  0.61652397  0.66219152    -0.39400
O1379       O  0.24118093  0.60782028  0.43211289    -0.39400
O1380       O  0.25248214  0.65244302  0.43244713    -0.37100
O1381       O  0.31589251  0.55947382  0.50499894    -0.38000
O1382       O  0.30084068  0.55966304  0.44224707    -0.34100
O1383       O  0.28629218  0.70017766  0.55274539    -0.35500
O1384       O  0.26877038  0.69934316  0.49392199    -0.39800
C1385       C  0.36489109  0.73697701  0.22543146    -0.13500
C1386       C  0.34981077  0.75469111  0.23527432     0.16900
C1387       C  0.33958357  0.74905273  0.27410702     0.03100
C1388       C  0.34466311  0.72615735  0.30285861    -0.12000
C1389       C  0.35980164  0.70818964  0.29336649    -0.03100
C1390       C  0.36998743  0.71389522  0.25403360     0.02400
C1391       C  0.34431614  0.77816454  0.20375083     0.09200
N1392       N  0.32371563  0.76601094  0.28411404     0.65600
H1393       H  0.33649109  0.72218227  0.33245740     0.18500
N1394       N  0.38578935  0.69701678  0.24313708     0.76100
H1395       H  0.37277278  0.74116283  0.19542162     0.10000
C1396       C  0.35030988  0.80748984  0.20876216     0.03700
C1397       C  0.34408374  0.82935120  0.17934926    -0.05000
C1398       C  0.33199758  0.82243444  0.14439149    -0.23400
C1399       C  0.32632238  0.79266920  0.13907748     0.13000
C1400       C  0.33237718  0.77106376  0.16903831    -0.12500
N1401       N  0.36249633  0.81538888  0.24401677     0.64600
H1402       H  0.34840698  0.85194988  0.18464074     0.12500
N1403       N  0.31493510  0.78368942  0.10273269     0.61300
H1404       H  0.32787922  0.74842129  0.16493893     0.08600
O1405       O  0.40103810  0.70363840  0.26009079    -0.40200
O1406       O  0.38497688  0.67800881  0.21254265    -0.39400
O1407       O  0.30835813  0.75812812  0.26906151    -0.39400
O1408       O  0.32467748  0.78672333  0.31202400    -0.37100
O1409       O  0.32014569  0.78822793  0.06318413    -0.38000
O1410       O  0.30131794  0.76710230  0.10982078    -0.34100
O1411       O  0.37936838  0.81042254  0.24016755    -0.35500
O1412       O  0.35672668  0.83006077  0.27678023    -0.39800
C1413       C  0.33180745  0.95373832  0.21906914    -0.13500
C1414       C  0.34622291  0.97149482  0.20349961     0.16900
C1415       C  0.35453510  0.96468918  0.16218379     0.03100
C1416       C  0.34795309  0.94071708  0.13700790    -0.12000
C1417       C  0.33340396  0.92321526  0.15259713    -0.03100
C1418       C  0.32544476  0.92963597  0.19434479     0.02400
C1419       C  0.35220915  0.99679003  0.23157398     0.09200
N1420       N  0.37246540  0.47813100  0.15369692     0.65600
H1421       H  0.35404204  0.93596155  0.10486474     0.18500
N1422       N  0.31099750  0.91166349  0.21222126     0.76100
H1423       H  0.32549131  0.95861591  0.25090801     0.10000
C1424       C  0.35071900  0.02647623  0.21740694     0.03700
C1425       C  0.35689711  0.54993997  0.24734656    -0.05000
C1426       C  0.36181421  0.54360474  0.29164551    -0.23400
C1427       C  0.36237409  0.51387506  0.30580251     0.13000
C1428       C  0.35742578  0.49136517  0.27625093    -0.12500
N1429       N  0.34271929  0.03383059  0.17511781     0.64600
H1430       H  0.35614449  0.57268787  0.23640561     0.12500
N1431       N  0.36821662  0.50608147  0.34986401     0.61300
H1432       H  0.35787387  0.46863737  0.28745171     0.08600
O1433       O  0.29688250  0.92349502  0.22825630    -0.40200
O1434       O  0.31294522  0.88410102  0.21528789    -0.39400
O1435       O  0.38640905  0.47541354  0.17805263    -0.39400
O1436       O  0.37395781  0.49029042  0.11594751    -0.37100
O1437       O  0.35929177  0.48721165  0.37209324    -0.38000
O1438       O  0.38343799  0.51513818  0.36431052    -0.34100
O1439       O  0.32812130  0.02136817  0.16271226    -0.35500
O1440       O  0.34893235  0.05524032  0.15266108    -0.39800
C1441       C  0.42448326  0.96138073  0.61586512    -0.13500
C1442       C  0.40683453  0.97329780  0.61336396     0.16900
C1443       C  0.39305717  0.96203362  0.64180043     0.03100
C1444       C  0.39714346  0.93933177  0.67178041    -0.12000
C1445       C  0.41489657  0.92793654  0.67541777    -0.03100
C1446       C  0.42869945  0.93918340  0.64695265     0.02400
C1447       C  0.40266580  0.99664946  0.57993537     0.09200
N1448       N  0.37491832  0.97381603  0.64130169     0.65600
H1449       H  0.38628665  0.93065237  0.69269136     0.18500
N1450       N  0.44721420  0.92959077  0.65076626     0.76100
H1451       H  0.43557873  0.46944380  0.59403091     0.10000
C1452       C  0.41288164  0.52340352  0.57841973     0.03700
C1453       C  0.40778385  0.54526630  0.54778952    -0.05000
C1454       C  0.39295001  0.54112076  0.51846773    -0.23400
C1455       C  0.38376712  0.51348907  0.51890205     0.13000
C1456       C  0.38830944  0.99207018  0.54977878    -0.12500
N1457       N  0.42750428  0.52930768  0.60883987     0.64600
H1458       H  0.41524435  0.56596689  0.54792988     0.12500
N1459       N  0.36908814  0.50693177  0.48899501     0.61300
H1460       H  0.38091869  0.97129067  0.55017407     0.08600
O1461       O  0.45573070  0.92096162  0.61662131    -0.40200
O1462       O  0.45590674  0.93440302  0.68633849    -0.39400
O1463       O  0.36127823  0.95669271  0.63963062    -0.39400
O1464       O  0.37244869  0.00114298  0.64610049    -0.37100
O1465       O  0.37042523  0.48506299  0.46330397    -0.38000
O1466       O  0.35247031  0.02032553  0.49931384    -0.34100
O1467       O  0.44311829  0.53625864  0.59414189    -0.35500
O1468       O  0.42443161  0.53028543  0.65024110    -0.39800
C1469       C  0.40769165  0.80745996  0.59793792    -0.13500
C1470       C  0.40457605  0.77881984  0.61411845     0.16900
C1471       C  0.40570230  0.77351843  0.66036940     0.03100
C1472       C  0.40969695  0.79683755  0.68938580    -0.12000
C1473       C  0.41203264  0.82588372  0.67358676    -0.03100
C1474       C  0.41108377  0.83102994  0.62704369     0.02400
C1475       C  0.40038396  0.75467645  0.58220828     0.09200
N1476       N  0.40218751  0.74478841  0.67851572     0.65600
H1477       H  0.41073658  0.79215365  0.72472819     0.18500
N1478       N  0.41234316  0.86012734  0.60876506     0.76100
H1479       H  0.40696563  0.81169653  0.56238870     0.10000
C1480       C  0.38559596  0.75664797  0.55225240     0.03700
C1481       C  0.38234872  0.73383733  0.52181278    -0.05000
C1482       C  0.39338498  0.70852218  0.52076145    -0.23400
C1483       C  0.40836536  0.70686940  0.55053038     0.13000
C1484       C  0.41166764  0.72980168  0.58078985    -0.12500
N1485       N  0.37337710  0.78120315  0.55333445     0.64600
H1486       H  0.37075786  0.73574171  0.49957496     0.12500
N1487       N  0.42050239  0.68230292  0.55034604     0.61300
H1488       H  0.42328817  0.72833366  0.60304282     0.08600
O1489       O  0.42352127  0.86550695  0.57764444    -0.40200
O1490       O  0.40006622  0.87862522  0.61756440    -0.39400
O1491       O  0.41349931  0.73316457  0.70487858    -0.39400
O1492       O  0.38707968  0.73210757  0.67132512    -0.37100
O1493       O  0.43343084  0.68148058  0.52248740    -0.38000
O1494       O  0.41993980  0.66377430  0.58179490    -0.34100
O1495       O  0.36959960  0.79486878  0.51782598    -0.35500
O1496       O  0.36506096  0.78754804  0.58891813    -0.39800
C1497       C  0.98840137  0.85975513  0.84581018    -0.13500
C1498       C  0.99927736  0.88129309  0.82475644     0.16900
C1499       C  0.99115692  0.90055266  0.79367492     0.03100
C1500       C  0.97236148  0.89844464  0.78511036    -0.12000
C1501       C  0.96139745  0.87756915  0.80744064    -0.03100
C1502       C  0.96962938  0.85765439  0.83737228     0.02400
C1503       C  0.01906945  0.88289536  0.83564744     0.09200
N1504       N  0.00162379  0.92328860  0.77234388     0.65600
H1505       H  0.96616861  0.91401403  0.76228784     0.18500
N1506       N  0.95931328  0.83426367  0.85763952     0.76100
H1507       H  0.99462824  0.84412768  0.86849048     0.10000
C1508       C  0.02490033  0.88500009  0.88031027     0.03700
C1509       C  0.04350651  0.88332667  0.89038337    -0.05000
C1510       C  0.05679702  0.88027153  0.85674034    -0.23400
C1511       C  0.05092594  0.87871402  0.81180560     0.13000
C1512       C  0.03220123  0.87994815  0.80175485    -0.12500
N1513       N  0.01207170  0.88939859  0.91581170     0.64600
H1514       H  0.04753844  0.88506528  0.92503663     0.12500
N1515       N  0.06366377  0.87519677  0.77606164     0.61300
H1516       H  0.02786751  0.87778602  0.76736461     0.08600
O1517       O  0.96044799  0.82970439  0.89909306    -0.40200
O1518       O  0.95122602  0.81563329  0.83336630    -0.39400
O1519       O  0.00326127  0.92356324  0.73043692    -0.39400
O1520       O  0.00759940  0.94473513  0.79486039    -0.37100
O1521       O  0.06932183  0.84981536  0.76615902    -0.38000
O1522       O  0.06737675  0.89674297  0.75085844    -0.34100
O1523       O  0.01248075  0.87312141  0.95000503    -0.35500
O1524       O  0.00113431  0.91079197  0.91441327    -0.39800
C1525       C  0.89641153  0.85173359  0.64532258    -0.13500
C1526       C  0.88612559  0.87541907  0.62928452     0.16900
C1527       C  0.88551503  0.90171763  0.65424417     0.03100
C1528       C  0.89488702  0.90349332  0.69495048    -0.12000
C1529       C  0.90435380  0.87916068  0.71293111    -0.03100
C1530       C  0.90568113  0.85341079  0.68616539     0.02400
C1531       C  0.87514106  0.87162732  0.58803063     0.09200
N1532       N  0.87471733  0.92636173  0.63998640     0.65600
H1533       H  0.89415884  0.92414272  0.71234307     0.18500
N1534       N  0.91596267  0.82832008  0.70037838     0.76100
H1535       H  0.89712682  0.83159346  0.62603738     0.10000
C1536       C  0.87707404  0.89050407  0.55061437     0.03700
C1537       C  0.86387487  0.88953794  0.51655877    -0.05000
C1538       C  0.84915263  0.86964352  0.51863309    -0.23400
C1539       C  0.84828408  0.84895981  0.55398934     0.13000
C1540       C  0.86110686  0.85049616  0.58851802    -0.12500
N1541       N  0.89201992  0.91109543  0.54736909     0.64600
H1542       H  0.86472805  0.90510713  0.48914656     0.12500
N1543       N  0.83435326  0.82654363  0.55552473     0.61300
H1544       H  0.85981964  0.83559140  0.61668491     0.08600
O1545       O  0.93311345  0.82850962  0.69606911    -0.40200
O1546       O  0.90783709  0.80408173  0.70702918    -0.39400
O1547       O  0.85831931  0.92256899  0.62818282    -0.39400
O1548       O  0.88080636  0.95229312  0.64431949    -0.37100
O1549       O  0.83063520  0.81171180  0.52110022    -0.38000
O1550       O  0.82668228  0.82001984  0.59201480    -0.34100
O1551       O  0.90785967  0.90365527  0.55943690    -0.35500
O1552       O  0.88977010  0.93590538  0.52905855    -0.39800
C1553       C  0.85133653  0.95095765  0.33646551    -0.13500
C1554       C  0.84699482  0.97991602  0.34888085     0.16900
C1555       C  0.83650261  0.98437249  0.38783935     0.03100
C1556       C  0.82991292  0.95996148  0.41204721    -0.12000
C1557       C  0.83390131  0.93090274  0.39906454    -0.03100
C1558       C  0.84513137  0.92660891  0.36124200     0.02400
C1559       C  0.85212279  0.50468071  0.31808584     0.09200
N1560       N  0.83379643  0.51305884  0.40497805     0.65600
H1561       H  0.82181719  0.96378028  0.44173840     0.18500
N1562       N  0.84941499  0.89777449  0.34547041     0.76100
H1563       H  0.85905652  0.94708736  0.30619621     0.10000
C1564       C  0.86981283  0.50717853  0.29943026     0.03700
C1565       C  0.87346248  0.52891911  0.26715087    -0.05000
C1566       C  0.86000265  0.54904825  0.25349624    -0.23400
C1567       C  0.84241942  0.54689403  0.27305438     0.13000
C1568       C  0.83866595  0.52480039  0.30465493    -0.12500
N1569       N  0.88464608  0.99067554  0.31799731     0.64600
H1570       H  0.88712713  0.53039867  0.25335941     0.12500
N1571       N  0.82796815  0.56617847  0.26013521     0.61300
H1572       H  0.82490588  0.52278575  0.31774585     0.08600
O1573       O  0.86549485  0.88831077  0.34983717    -0.40200
O1574       O  0.83896896  0.88564404  0.31749780    -0.39400
O1575       O  0.81827111  0.51971013  0.42018776    -0.39400
O1576       O  0.84677845  0.53139620  0.40797329    -0.37100
O1577       O  0.81933067  0.56145778  0.22442897    -0.38000
O1578       O  0.82223191  0.58531638  0.28713449    -0.34100
O1579       O  0.89473604  0.47660603  0.28495944    -0.35500
O1580       O  0.88762243  0.98911687  0.35940107    -0.39800
C1581       C  0.86493499  0.75753374  0.28559443    -0.13500
C1582       C  0.84766275  0.75589656  0.30584096     0.16900
C1583       C  0.83605520  0.73188573  0.29573692     0.03100
C1584       C  0.84184713  0.71026734  0.26556227    -0.12000
C1585       C  0.85919337  0.71167964  0.24522947    -0.03100
C1586       C  0.87076897  0.73587980  0.25554670     0.02400
C1587       C  0.84148558  0.78052092  0.33482836     0.09200
N1588       N  0.81848020  0.72886105  0.31648691     0.65600
H1589       H  0.83269854  0.69201833  0.25847091     0.18500
N1590       N  0.88837917  0.73919369  0.23542931     0.76100
H1591       H  0.87382942  0.77617173  0.29240700     0.10000
C1592       C  0.85172870  0.78980956  0.37217450     0.03700
C1593       C  0.84597286  0.81428446  0.39696899    -0.05000
C1594       C  0.82977305  0.82911984  0.38630003    -0.23400
C1595       C  0.81953128  0.81981709  0.34882714     0.13000
C1596       C  0.82552564  0.79580169  0.32352373    -0.12500
N1597       N  0.86738685  0.77361071  0.38673963     0.64600
H1598       H  0.85367104  0.82070674  0.42626937     0.12500
N1599       N  0.80322175  0.83476342  0.33545147     0.61300
H1600       H  0.81779791  0.78929024  0.29431319     0.08600
O1601       O  0.90251824  0.73303614  0.25752426    -0.40200
O1602       O  0.88992239  0.75262138  0.19867962    -0.39400
O1603       O  0.80455328  0.72319869  0.29316908    -0.39400
O1604       O  0.81702137  0.72990069  0.35841493    -0.37100
O1605       O  0.80374477  0.86183023  0.32568813    -0.38000
O1606       O  0.78866198  0.82031955  0.32917316    -0.34100
O1607       O  0.88196809  0.78702451  0.39672642    -0.35500
O1608       O  0.86607761  0.74625950  0.39407638    -0.39800
C1609       C  0.90907403  0.49640205  0.00503403    -0.13500
C1610       C  0.90533156  0.50030433  0.95949703     0.16900
C1611       C  0.89687314  0.52663900  0.94544050     0.03100
C1612       C  0.89191060  0.54797410  0.97697560    -0.12000
C1613       C  0.89546667  0.54414602  0.02275938    -0.03100
C1614       C  0.90423287  0.51784237  0.03662064     0.02400
C1615       C  0.90783809  0.97658380  0.92563615     0.09200
N1616       N  0.89349068  0.53223093  0.89908003     0.65600
H1617       H  0.88549807  0.56800131  0.96523384     0.18500
N1618       N  0.90775474  0.51191528  0.08269080     0.76100
H1619       H  0.91806360  0.97961343  0.01219789     0.10000
C1620       C  0.92538927  0.96450126  0.91866609     0.03700
C1621       C  0.92749473  0.94057056  0.88940667    -0.05000
C1622       C  0.91256066  0.92901080  0.86572364    -0.23400
C1623       C  0.89495492  0.94071574  0.87341398     0.13000
C1624       C  0.89283048  0.96411482  0.90330834    -0.12500
N1625       N  0.94128031  0.97711931  0.93926117     0.64600
H1626       H  0.94105400  0.93197052  0.88334188     0.12500
N1627       N  0.87901443  0.92878525  0.85201274     0.61300
H1628       H  0.87922219  0.97241062  0.90966918     0.08600
O1629       O  0.92909144  0.02048251  0.08719166    -0.40200
O1630       O  0.89480413  0.50409854  0.10801694    -0.39400
O1631       O  0.87815881  0.54179207  0.88660676    -0.39400
O1632       O  0.90615188  0.52931037  0.87082346    -0.37100
O1633       O  0.87581015  0.90141831  0.85300897    -0.38000
O1634       O  0.86737188  0.94584415  0.83495449    -0.34100
O1635       O  0.95326282  0.96062731  0.95619254    -0.35500
O1636       O  0.94619823  0.49942167  0.94286550    -0.39800
C1637       C  0.88638789  0.73621910  0.94682183    -0.13500
C1638       C  0.90115706  0.75542541  0.95487630     0.16900
C1639       C  0.91119625  0.75218031  0.99481457     0.03100
C1640       C  0.90634965  0.73004765  0.02542446    -0.12000
C1641       C  0.89184747  0.71039222  0.01696601    -0.03100
C1642       C  0.88163246  0.71388964  0.97726864     0.02400
C1643       C  0.90505627  0.77992069  0.92279842     0.09200
N1644       N  0.92664892  0.77066946  0.00431251     0.65600
H1645       H  0.91441691  0.72766943  0.05549041     0.18500
N1646       N  0.86586895  0.69600376  0.96831066     0.76100
H1647       H  0.87809967  0.73915707  0.91723549     0.10000
C1648       C  0.90660619  0.77496407  0.87643159     0.03700
C1649       C  0.90905962  0.79894756  0.84728701    -0.05000
C1650       C  0.91054129  0.82800704  0.86323784    -0.23400
C1651       C  0.90909213  0.83283329  0.90970689     0.13000
C1652       C  0.90619697  0.80896003  0.93867775    -0.12500
N1653       N  0.90629949  0.74568545  0.85852759     0.64600
H1654       H  0.91060754  0.79463133  0.81196385     0.12500
N1655       N  0.90951195  0.86184957  0.92814801     0.61300
H1656       H  0.90439586  0.81328456  0.97393457     0.08600
O1657       O  0.86464129  0.68223210  0.93190343    -0.40200
O1658       O  0.85218146  0.69713286  0.99390705    -0.39400
O1659       O  0.92796822  0.78324477  0.04169063    -0.39400
O1660       O  0.93962336  0.77276934  0.97668271    -0.37100
O1661       O  0.89542810  0.87763828  0.92576130    -0.38000
O1662       O  0.92194364  0.86871316  0.95542223    -0.34100
O1663       O  0.89663742  0.73985844  0.82480046    -0.35500
O1664       O  0.91668066  0.72614756  0.87431974    -0.39800
C1665       C  0.97379448  0.65564366  0.20188058    -0.13500
C1666       C  0.98317881  0.62876649  0.20160640     0.16900
C1667       C  0.97329877  0.60243826  0.19431481     0.03100
C1668       C  0.95442239  0.60345247  0.18701832    -0.12000
C1669       C  0.94498458  0.63039082  0.18598336    -0.03100
C1670       C  0.95489380  0.65673343  0.19438063     0.02400
C1671       C  0.00311875  0.62834894  0.21099746     0.09200
N1672       N  0.98236509  0.57457945  0.19240332     0.65600
H1673       H  0.94726413  0.58295294  0.18041718     0.18500
N1674       N  0.94600629  0.68470009  0.19640796     0.76100
H1675       H  0.98115282  0.67591926  0.20881154     0.10000
C1676       C  0.01560639  0.64509007  0.18538304     0.03700
C1677       C  0.03430422  0.64398571  0.19506530    -0.05000
C1678       C  0.04097480  0.62597636  0.22947871    -0.23400
C1679       C  0.02844966  0.60925746  0.25534338     0.13000
C1680       C  0.00969173  0.61108139  0.24636241    -0.12500
N1681       N  0.00955279  0.66268900  0.14866689     0.64600
H1682       H  0.04367130  0.65725943  0.17534047     0.12500
N1683       N  0.03452639  0.58947404  0.28955410     0.61300
H1684       H  0.00018298  0.59834168  0.26648638     0.08600
O1685       O  0.95033090  0.70481170  0.16913735    -0.40200
O1686       O  0.93578937  0.69062334  0.22908504    -0.39400
O1687       O  0.97703037  0.55351905  0.21684327    -0.39400
O1688       O  0.99461342  0.57019999  0.16353359    -0.37100
O1689       O  0.04618879  0.56994211  0.28070873    -0.38000
O1690       O  0.02697245  0.58961491  0.32743175    -0.34100
O1691       O  0.01231002  0.69017781  0.14871756    -0.35500
O1692       O  0.00308060  0.65046220  0.11433460    -0.39800
C1693       C  0.78854403  0.62254213  0.01301215    -0.13500
C1694       C  0.77462561  0.63190631  0.04160231     0.16900
C1695       C  0.77884296  0.63962978  0.08578357     0.03100
C1696       C  0.79690086  0.63778232  0.10083039    -0.12000
C1697       C  0.81097964  0.62790987  0.07260850    -0.03100
C1698       C  0.80660104  0.62018838  0.02806862     0.02400
C1699       C  0.75569424  0.63294857  0.02482731     0.09200
N1700       N  0.76489581  0.64927573  0.11573009     0.65600
H1701       H  0.79987148  0.64410825  0.13489594     0.18500
N1702       N  0.82011786  0.60907749  0.99805524     0.76100
H1703       H  0.78527050  0.61641000  0.97901177     0.10000
C1704       C  0.74865642  0.65851749  0.00506714     0.03700
C1705       C  0.73089571  0.65841601  0.98771114    -0.05000
C1706       C  0.71966098  0.63295928  0.98976813    -0.23400
C1707       C  0.72694134  0.60744606  0.01087623     0.13000
C1708       C  0.74479942  0.60766414  0.02755025    -0.12500
N1709       N  0.75940817  0.68488328  0.00267263     0.64600
H1710       H  0.72612998  0.67887779  0.97389635     0.12500
N1711       N  0.71633834  0.58112250  0.01655828     0.61300
H1712       H  0.75017555  0.58792795  0.04307177     0.08600
O1713       O  0.82318486  0.62220342  0.96160978    -0.40200
O1714       O  0.82702438  0.58404392  0.00491273    -0.39400
O1715       O  0.75372495  0.63082491  0.13189174    -0.39400
O1716       O  0.76524384  0.67527824  0.13056623    -0.37100
O1717       O  0.71929688  0.55947381  0.99126090    -0.38000
O1718       O  0.70855142  0.57659348  0.05352113    -0.34100
O1719       O  0.76638558  0.69275749  0.96599520    -0.35500
O1720       O  0.75990416  0.70218595  0.03553571    -0.39800
C1721       C  0.50930424  0.65647449  0.31531590    -0.13500
C1722       C  0.50152136  0.62998060  0.33034084     0.16900
C1723       C  0.51262563  0.60516177  0.33666993     0.03100
C1724       C  0.53140920  0.60739379  0.32899392    -0.12000
C1725       C  0.53940579  0.63410138  0.31579193    -0.03100
C1726       C  0.52815728  0.65879713  0.30719338     0.02400
C1727       C  0.48184479  0.62887154  0.34078988     0.09200
N1728       N  0.50489254  0.57747402  0.34991943     0.65600
H1729       H  0.53979221  0.58798226  0.33186679     0.18500
N1730       N  0.53544090  0.68616267  0.29030899     0.76100
H1731       H  0.50060905  0.67538615  0.30979850     0.10000
C1732       C  0.47569036  0.62793199  0.38529795     0.03700
C1733       C  0.45693422  0.62619658  0.39391998    -0.05000
C1734       C  0.44400596  0.62599794  0.35912085    -0.23400
C1735       C  0.45036270  0.62663309  0.31452790     0.13000
C1736       C  0.46916537  0.62811375  0.30584173    -0.12500
N1737       N  0.48824371  0.62943938  0.42204531     0.64600
H1738       H  0.45248887  0.62581683  0.42839507     0.12500
N1739       N  0.43802099  0.62559285  0.27767943     0.61300
H1740       H  0.47392325  0.62853702  0.27158943     0.08600
O1741       O  0.52870843  0.71028161  0.30305641    -0.40200
O1742       O  0.54596650  0.68628235  0.25696068    -0.39400
O1743       O  0.49688493  0.56149920  0.32154259    -0.39400
O1744       O  0.50736071  0.56787288  0.38897226    -0.37100
O1745       O  0.43273927  0.64925954  0.25979149    -0.38000
O1746       O  0.43469946  0.60129993  0.25885958    -0.34100
O1747       O  0.50071099  0.64879148  0.42256893    -0.35500
O1748       O  0.48565593  0.61364695  0.45624218    -0.39800
C1749       C  0.62736910  0.63402874  0.18366759    -0.13500
C1750       C  0.61810834  0.63120632  0.14311243     0.16900
C1751       C  0.59887605  0.62993606  0.14307672     0.03100
C1752       C  0.58933325  0.63175276  0.18365697    -0.12000
C1753       C  0.59855367  0.63386133  0.22499911    -0.03100
C1754       C  0.61795829  0.63508799  0.22418358     0.02400
C1755       C  0.62911553  0.62883485  0.10173690     0.09200
N1756       N  0.58886137  0.62557022  0.10246046     0.65600
H1757       H  0.57469121  0.63023507  0.18185159     0.18500
N1758       N  0.62847852  0.63731400  0.26426155     0.76100
H1759       H  0.64217416  0.63507171  0.18392726     0.10000
C1760       C  0.62809561  0.64965025  0.06659167     0.03700
C1761       C  0.63995233  0.64700555  0.02990887    -0.05000
C1762       C  0.65312023  0.62469956  0.02848684    -0.23400
C1763       C  0.65337951  0.60296009  0.06231644     0.13000
C1764       C  0.64143643  0.60541639  0.09857654    -0.12500
N1765       N  0.61610452  0.67454986  0.06893590     0.64600
H1766       H  0.63991611  0.66385366  0.00419656     0.12500
N1767       N  0.66573001  0.57846310  0.06046323     0.61300
H1768       H  0.64182983  0.58901834  0.12492152     0.08600
O1769       O  0.63401713  0.61406070  0.28289146    -0.40200
O1770       O  0.63625391  0.66145513  0.27340272    -0.39400
O1771       O  0.59326818  0.60517730  0.07604753    -0.39400
O1772       O  0.57446464  0.63998851  0.09518923    -0.37100
O1773       O  0.66904051  0.56599168  0.02375482    -0.38000
O1774       O  0.67189455  0.56732947  0.09600091    -0.34100
O1775       O  0.61502681  0.68948088  0.10430733    -0.35500
O1776       O  0.60823239  0.68373958  0.03417327    -0.39800
C1777       C  0.71715759  0.90665696  0.53670820    -0.13500
C1778       C  0.72982551  0.88564769  0.55101947     0.16900
C1779       C  0.72473854  0.86499618  0.58425571     0.03100
C1780       C  0.70670098  0.86463560  0.60028696    -0.12000
C1781       C  0.69386097  0.88523090  0.58517871    -0.03100
C1782       C  0.69927882  0.90660806  0.55335321     0.02400
C1783       C  0.74770283  0.88399870  0.52791079     0.09200
N1784       N  0.73780505  0.84482489  0.60261690     0.65600
H1785       H  0.70280268  0.84869120  0.62560005     0.18500
N1786       N  0.68647470  0.92716798  0.53541977     0.76100
H1787       H  0.72095361  0.92237498  0.51096926     0.10000
C1788       C  0.75229618  0.85945105  0.50163146     0.03700
C1789       C  0.76957499  0.85802240  0.48153924    -0.05000
C1790       C  0.78254999  0.88099838  0.48611353    -0.23400
C1791       C  0.77771109  0.90551608  0.51316228     0.13000
C1792       C  0.76038123  0.90689886  0.53299579    -0.12500
N1793       N  0.73944200  0.83592034  0.49457228     0.64600
H1794       H  0.77254532  0.83839659  0.46290005     0.12500
N1795       N  0.79029264  0.92914112  0.52155594     0.61300
H1796       H  0.75696423  0.92569562  0.55356929     0.08600
O1797       O  0.67417065  0.91837767  0.50907214    -0.40200
O1798       O  0.68869059  0.95443153  0.54186668    -0.39400
O1799       O  0.75361779  0.85376699  0.61286703    -0.39400
O1800       O  0.73295812  0.81902776  0.61347174    -0.37100
O1801       O  0.78691817  0.95447705  0.50627949    -0.38000
O1802       O  0.80191240  0.92654032  0.55235179    -0.34100
O1803       O  0.72363364  0.84142390  0.48008652    -0.35500
O1804       O  0.74436982  0.80945483  0.49897606    -0.39800
C1805       C  0.64554503  0.98396934  0.83305179    -0.13500
C1806       C  0.64971076  0.51280781  0.81168865     0.16900
C1807       C  0.64910286  0.51703586  0.76506011     0.03100
C1808       C  0.64751824  0.99144205  0.74077724    -0.12000
C1809       C  0.64207728  0.96391137  0.75805268    -0.03100
C1810       C  0.64098313  0.96031208  0.80489878     0.02400
C1811       C  0.65673691  0.53646012  0.84150194     0.09200
N1812       N  0.65226523  0.54556429  0.74562180     0.65600
H1813       H  0.64803077  0.99494110  0.70502670     0.18500
N1814       N  0.63623295  0.93249256  0.82448993     0.76100
H1815       H  0.64538027  0.98062122  0.86885277     0.10000
C1816       C  0.64668298  0.54676360  0.87838638     0.03700
C1817       C  0.65398453  0.56919496  0.90528073    -0.05000
C1818       C  0.67111895  0.58197474  0.89589892    -0.23400
C1819       C  0.68132102  0.57123556  0.85922649     0.13000
C1820       C  0.67411951  0.54844833  0.83301656    -0.12500
N1821       N  0.62892525  0.53509756  0.88842976     0.64600
H1822       H  0.64614600  0.57669350  0.93370588     0.12500
N1823       N  0.69875773  0.58352462  0.84723771     0.61300
H1824       H  0.68205771  0.54034688  0.80512148     0.08600
O1825       O  0.62280813  0.93061119  0.85082663    -0.40200
O1826       O  0.64682498  0.91081948  0.82024365    -0.39400
O1827       O  0.66224129  0.54821929  0.71144826    -0.39400
O1828       O  0.64392858  0.56779981  0.76035836    -0.37100
O1829       O  0.70043844  0.61080640  0.83981250    -0.38000
O1830       O  0.71211713  0.56673579  0.83991062    -0.34100
O1831       O  0.62546851  0.52522791  0.92694788    -0.35500
O1832       O  0.61629497  0.53662189  0.85990534    -0.39800
C1833       C  0.63832121  0.77683765  0.83323921    -0.13500
C1834       C  0.65127715  0.75566853  0.82096662     0.16900
C1835       C  0.65929738  0.75729573  0.77831613     0.03100
C1836       C  0.65413534  0.77958527  0.74859000    -0.12000
C1837       C  0.64116377  0.80101805  0.76048001    -0.03100
C1838       C  0.63314204  0.79930256  0.80350359     0.02400
C1839       C  0.65590008  0.73121832  0.85202626     0.09200
N1840       N  0.67318746  0.73696766  0.76527843     0.65600
H1841       H  0.66069316  0.78036085  0.71618882     0.18500
N1842       N  0.61941178  0.81962750  0.81727231     0.76100
H1843       H  0.63191343  0.77554913  0.86580328     0.10000
C1844       C  0.66434551  0.73656378  0.89347053     0.03700
C1845       C  0.66972637  0.71273276  0.92025199    -0.05000
C1846       C  0.66700429  0.68343447  0.90636367    -0.23400
C1847       C  0.65760712  0.67819699  0.86602056     0.13000
C1848       C  0.65220478  0.70202488  0.83930795    -0.12500
N1849       N  0.66844853  0.76597364  0.90764787     0.64600
H1850       H  0.67673636  0.71714627  0.95136981     0.12500
N1851       N  0.65451725  0.64894600  0.85006498     0.61300
H1852       H  0.64549537  0.69769402  0.80776757     0.08600
O1853       O  0.62302977  0.83857010  0.84676426    -0.40200
O1854       O  0.60307416  0.81575885  0.80509310    -0.39400
O1855       O  0.67099430  0.72111453  0.73115659    -0.39400
O1856       O  0.68831017  0.73675605  0.78546480    -0.37100
O1857       O  0.63879075  0.63761773  0.85359584    -0.38000
O1858       O  0.66584493  0.63772497  0.82341607    -0.34100
O1859       O  0.66293490  0.77489807  0.94512786    -0.35500
O1860       O  0.67896188  0.78211618  0.88463631    -0.39800
C1861       C  0.59542209  0.98564965  0.46187958    -0.13500
C1862       C  0.60557043  0.51310436  0.46342779     0.16900
C1863       C  0.61964944  0.51559517  0.49535665     0.03100
C1864       C  0.62314658  0.99096893  0.52505424    -0.12000
C1865       C  0.61278599  0.96468259  0.52365304    -0.03100
C1866       C  0.59880767  0.96221194  0.49123450     0.02400
C1867       C  0.60090635  0.53768053  0.43278814     0.09200
N1868       N  0.62968559  0.54263156  0.50098488     0.65600
H1869       H  0.63380480  0.99359778  0.54978459     0.18500
N1870       N  0.58782776  0.93617954  0.48757238     0.76100
H1871       H  0.58467944  0.98335717  0.43724774     0.10000
C1872       C  0.61353412  0.54951010  0.40190516     0.03700
C1873       C  0.60824690  0.57307900  0.37443052    -0.05000
C1874       C  0.59031268  0.58439782  0.37508753    -0.23400
C1875       C  0.57786174  0.57248788  0.40687548     0.13000
C1876       C  0.58335535  0.54953436  0.43510104    -0.12500
N1877       N  0.63145092  0.53716968  0.39672782     0.64600
H1878       H  0.61821600  0.58205098  0.35134839     0.12500
N1879       N  0.55928942  0.58169188  0.41011089     0.61300
H1880       H  0.57365279  0.54060267  0.45901676     0.08600
O1881       O  0.59125540  0.91761205  0.45748453    -0.40200
O1882       O  0.57309730  0.93415056  0.50931212    -0.39400
O1883       O  0.62135563  0.56686363  0.50345277    -0.39400
O1884       O  0.64666638  0.54205695  0.50825384    -0.37100
O1885       O  0.54703608  0.56293277  0.40122097    -0.38000
O1886       O  0.55546560  0.60190680  0.43734247    -0.34100
O1887       O  0.63349373  0.50957006  0.39532261    -0.35500
O1888       O  0.64512492  0.05165187  0.38921912    -0.39800
C1889       C  0.62061228  0.75147784  0.49327366    -0.13500
C1890       C  0.60604619  0.75487659  0.46339152     0.16900
C1891       C  0.59551638  0.78082374  0.46510040     0.03100
C1892       C  0.59947851  0.80239235  0.49711867    -0.12000
C1893       C  0.61410482  0.79918132  0.52713761    -0.03100
C1894       C  0.62480621  0.77329036  0.52470563     0.02400
C1895       C  0.60124002  0.73036747  0.43263851     0.09200
N1896       N  0.58104019  0.78590797  0.43385458     0.65600
H1897       H  0.59122947  0.82213526  0.49773098     0.18500
N1898       N  0.63980660  0.76843341  0.55424813     0.76100
H1899       H  0.62861939  0.73146145  0.49273777     0.10000
C1900       C  0.61408057  0.71836986  0.40278316     0.03700
C1901       C  0.60883253  0.69535015  0.37436099    -0.05000
C1902       C  0.59080689  0.68423746  0.37401218    -0.23400
C1903       C  0.57823223  0.69553486  0.40546796     0.13000
C1904       C  0.58358499  0.71823832  0.43432165    -0.12500
N1905       N  0.63231507  0.72989898  0.39989249     0.64600
H1906       H  0.61894635  0.68645873  0.35178336     0.12500
N1907       N  0.55978000  0.68527683  0.40783418     0.61300
H1908       H  0.57374023  0.72677170  0.45796799     0.08600
O1909       O  0.65592965  0.77302490  0.54085455    -0.40200
O1910       O  0.63714168  0.75562038  0.59112043    -0.39400
O1911       O  0.56580292  0.79535323  0.44721966    -0.39400
O1912       O  0.58394060  0.78341245  0.39252001    -0.37100
O1913       O  0.55460612  0.67094518  0.44176228    -0.38000
O1914       O  0.54794305  0.69713082  0.38326095    -0.34100
O1915       O  0.64578412  0.71269862  0.40184845    -0.35500
O1916       O  0.63495489  0.75686787  0.39145663    -0.39800
C1917       C  0.49001849  0.85665262  0.69289148    -0.13500
C1918       C  0.50069153  0.87761829  0.71538878     0.16900
C1919       C  0.49238295  0.89643820  0.74678119     0.03100
C1920       C  0.47363427  0.89345333  0.75558256    -0.12000
C1921       C  0.46286743  0.87285879  0.73239969    -0.03100
C1922       C  0.47124387  0.85393489  0.70133510     0.02400
C1923       C  0.52051453  0.87928891  0.70564539     0.09200
N1924       N  0.50252522  0.91969496  0.76791175     0.65600
H1925       H  0.46720397  0.90854072  0.77866883     0.18500
N1926       N  0.46106986  0.83094374  0.67986400     0.76100
H1927       H  0.49643486  0.84187567  0.66932017     0.10000
C1928       C  0.53375411  0.87245207  0.73815691     0.03700
C1929       C  0.55239289  0.87506597  0.72762190    -0.05000
C1930       C  0.55814524  0.88384000  0.68476034    -0.23400
C1931       C  0.54471479  0.89119761  0.65265973     0.13000
C1932       C  0.52615325  0.88857485  0.66325660    -0.12500
N1933       N  0.52847308  0.86158782  0.78122266     0.64600
H1934       H  0.56239271  0.86901494  0.75258969     0.12500
N1935       N  0.54963260  0.90233217  0.60959585     0.61300
H1936       H  0.51602724  0.89440901  0.63844265     0.08600
O1937       O  0.45232654  0.81239549  0.70312204    -0.40200
O1938       O  0.46285061  0.82667833  0.63850453    -0.39400
O1939       O  0.51234667  0.93687321  0.74477301    -0.39400
O1940       O  0.49983683  0.92550952  0.80853815    -0.37100
O1941       O  0.54583266  0.88762040  0.57513313    -0.38000
O1942       O  0.55535672  0.92851039  0.60566148    -0.34100
O1943       O  0.51892079  0.83841386  0.78443167    -0.35500
O1944       O  0.53501817  0.87314202  0.81600655    -0.39800
loop_ 
_geom_bond_atom_site_label_1 
_geom_bond_atom_site_label_2 
_geom_bond_distance 
_geom_bond_site_symmetry_2 
_ccdc_geom_bond_type 
Zn1           O5   1.951       .  S
Zn1           O6   2.001       .  S
Zn1          O10   2.009       .  S
Zn1          O17   2.007       .  S
Zn2           O5   1.976       .  S
Zn2           O7   2.037       .  S
Zn2           O9   2.043       .  S
Zn2          O13   2.045       .  S
Zn3           O5   1.959       .  S
Zn3           O8   2.023       .  S
Zn3          O11   2.006       .  S
Zn3          O14   2.021       .  S
Zn4           O5   1.956       .  S
Zn4          O12   2.014       .  S
Zn4          O15   2.009       .  S
Zn4          O16   2.023       .  S
O6           C18   1.273       .  A
O7           C19   1.277       .  A
O8           C20   1.273       .  A
O9           C18   1.276       .  A
O10          C20   1.272       .  A
O11          C19   1.273       .  A
O12          C21   1.272       .  A
O13          C22   1.276       .  A
O14          C21   1.275       .  A
O15          C22   1.274       .  A
O16          C23   1.274       .  A
O17          C23   1.272       .  A
C18         C837   1.487       .  S
C19         C958   1.489       .  S
C20         C893   1.492       .  S
C21         C921   1.492       .  S
C22         C865   1.495       .  S
C23         C809   1.481       .  S
C24          C25   1.541       .  S
C24          C30   1.535       .  S
C24          C28   1.538       .  S
C24         C781   1.540       .  S
C25          H32   1.085       .  S
C25          C26   1.374       .  D
C26          C27   1.546       .  S
C26         C902   1.511       .  S
C27          C31   1.541       .  S
C27          C29   1.545       .  S
C27          H33   1.095       .  S
C28          H34   1.081       .  S
C28          C29   1.360       .  D
C29         C753   1.476       .  S
C30          H35   1.085       .  S
C30          C31   1.367       .  D
C31         C930   1.498       .  S
C36          C37   1.533       .  S
C36          C42   1.534   1_556  S
C36          C40   1.549       .  S
C36         C734   1.539       .  S
C37          H44   1.084       .  S
C37          C38   1.367       .  D
C38          C39   1.544       .  S
C38         C846   1.491       .  S
C39          C43   1.537       .  S
C39          C41   1.537       .  S
C39          H45   1.109       .  S
C40          H46   1.081       .  S
C40          C41   1.368       .  D
C41         C874   1.487       .  S
C42          H47   1.086       .  S
C42          C43   1.363   1_554  D
C43         C790   1.479   1_556  S
Zn48         O52   1.960       .  S
Zn48         O53   2.014       .  S
Zn48         O57   2.024       .  S
Zn48         O64   2.024       .  S
Zn49         O52   1.964       .  S
Zn49         O54   2.025       .  S
Zn49         O56   2.023       .  S
Zn49         O60   2.022       .  S
Zn50         O52   1.962       .  S
Zn50         O55   2.028       .  S
Zn50         O58   2.026       .  S
Zn50         O61   2.013       .  S
Zn51         O52   1.962       .  S
Zn51         O59   2.018       .  S
Zn51         O62   2.026       .  S
Zn51         O63   2.032       .  S
O53          C65   1.274       .  A
O54          C66   1.274       .  A
O55          C67   1.276       .  A
O56          C65   1.275       .  A
O57          C67   1.273       .  A
O58          C66   1.274       .  A
O59          C68   1.275       .  A
O60          C69   1.274       .  A
O61          C68   1.273       .  A
O62          C69   1.275       .  A
O63          C70   1.275       .  A
O64          C70   1.275       .  A
C65         C697   1.490       .  S
C66         C669   1.490       .  S
C67         C641   1.496       .  S
C68         C725   1.490       .  S
C69         C613   1.495       .  S
C70         C594   1.494       .  S
C71          C72   1.548       .  S
C71          C77   1.546       .  S
C71          C75   1.532       .  S
C71         C557   1.543       .  S
C72          H79   1.079       .  S
C72          C73   1.368       .  D
C73          C74   1.539       .  S
C73         C650   1.494       .  S
C74          C78   1.539       .  S
C74          C76   1.542       .  S
C74          H80   1.108       .  S
C75          H81   1.086       .  S
C75          C76   1.362       .  D
C76         C529   1.483       .  S
C77          H82   1.085       .  S
C77          C78   1.370       .  D
C78         C678   1.497       .  S
C83          C84   1.540       .  S
C83          C89   1.528       .  S
C83          C87   1.547       .  S
C83         C818   1.539       .  S
C84          H91   1.085       .  S
C84          C85   1.370       .  D
C85          C86   1.544       .  S
C85         C585   1.494       .  S
C86          C90   1.539       .  S
C86          C88   1.541       .  S
C86          H92   1.107       .  S
C87          H93   1.080       .  S
C87          C88   1.368       .  D
C88         C622   1.488       .  S
C89          H94   1.086       .  S
C89          C90   1.361       .  D
C90         C566   1.485       .  S
Zn95         O99   1.960       .  S
Zn95        O100   2.022       .  S
Zn95        O104   2.026       .  S
Zn95        O111   2.042       .  S
Zn96         O99   1.959       .  S
Zn96        O101   1.988       .  S
Zn96        O103   2.019       .  S
Zn96        O107   2.025       .  S
Zn97         O99   1.978       .  S
Zn97        O102   2.043       .  S
Zn97        O105   2.033       .  S
Zn97        O108   2.043       .  S
Zn98         O99   1.953       .  S
Zn98        O106   2.010       .  S
Zn98        O109   2.017       .  S
Zn98        O110   2.012       .  S
O100        C112   1.272       .  A
O101        C113   1.272       .  A
O102        C114   1.276       .  A
O103        C112   1.274       .  A
O104        C114   1.276       .  A
O105        C113   1.275       .  A
O106        C115   1.274       .  A
O107        C116   1.273       .  A
O108        C115   1.277       .  A
O109        C116   1.273       .  A
O110        C117   1.274       .  A
O111        C117   1.277       .  A
C112        C482   1.495       .  S
C113        C762   1.488       .  S
C114        C454   1.485       .  S
C115        C417   1.493       .  S
C116        C510   1.495       .  S
C117        C398   1.492       .  S
C118        C119   1.539       .  S
C118        C124   1.536       .  S
C118        C122   1.546       .  S
C118        C361   1.540       .  S
C119        H126   1.085       .  S
C119        C120   1.368       .  D
C120        C121   1.540       .  S
C120        C501   1.493       .  S
C121        C125   1.540       .  S
C121        C123   1.540       .  S
C121        H127   1.108       .  S
C122        H128   1.081       .  S
C122        C123   1.366       .  D
C123        C949   1.483       .  S
C124        H129   1.086       .  S
C124        C125   1.365       .  D
C125        C473   1.491       .  S
C130        C131   1.536       .  S
C130        C136   1.535       .  S
C130        C134   1.542       .  S
C130        C342   1.540       .  S
C131        H138   1.085       .  S
C131        C132   1.369       .  D
C132        C133   1.547       .  S
C132        C426   1.496       .  S
C133        C137   1.541       .  S
C133        C135   1.541       .  S
C133        H139   1.110       .  S
C134        H140   1.082       .  S
C134        C135   1.365       .  D
C135        C445   1.486       .  S
C136        H141   1.086       .  S
C136        C137   1.364       .  D
C137        C370   1.484       .  S
Zn142       O146   1.958       .  S
Zn142       O147   2.030       .  S
Zn142       O151   2.015       .  S
Zn142       O158   2.020       .  S
Zn143       O146   1.952       .  S
Zn143       O148   2.013       .  S
Zn143       O150   2.010       .  S
Zn143       O154   2.004       .  S
Zn144       O146   1.957       .  S
Zn144       O149   2.020       .  S
Zn144       O152   2.021       .  S
Zn144       O155   2.000       .  S
Zn145       O146   1.976       .  S
Zn145       O153   2.038       .  S
Zn145       O156   2.037       .  S
Zn145       O157   2.038       .  S
O147        C159   1.276       .  A
O148        C160   1.273       .  A
O149        C161   1.273       .  A
O150        C159   1.272       .  A
O151        C161   1.274       .  A
O152        C160   1.273       .  A
O153        C162   1.275       .  A
O154        C163   1.272       .  A
O155        C162   1.273       .  A
O156        C163   1.277       .  A
O157        C164   1.276       .  A
O158        C164   1.275       .  A
C159        C333   1.493       .  S
C160        C277   1.491   1_556  S
C161        C305   1.490   1_556  S
C162        C538   1.493       .  S
C163        C221   1.490       .  S
C164        C249   1.490       .  S
C165        C166   1.538       .  S
C165        C171   1.541       .  S
C165        C169   1.548       .  S
C165        C202   1.543       .  S
C166        H173   1.085       .  S
C166        C167   1.369       .  D
C167        C168   1.538       .  S
C167        C286   1.492       .  S
C168        C172   1.535       .  S
C168        C170   1.534       .  S
C168        H174   1.108       .  S
C169        H175   1.079       .  S
C169        C170   1.366       .  D
C170        C706   1.485       .  S
C171        H176   1.086       .  S
C171        C172   1.366       .  D
C172        C314   1.486       .  S
C177        C178   1.539       .  S
C177        C183   1.544       .  S
C177        C181   1.542       .  S
C177        C389   1.547       .  S
C178        H185   1.085       .  S
C178        C179   1.368       .  D
C179        C180   1.538       .  S
C179        C230   1.486       .  S
C180        C184   1.534       .  S
C180        C182   1.545       .  S
C180        H186   1.110       .  S
C181        H187   1.085       .  S
C181        C182   1.373       .  D
C182        C258   1.499       .  S
C183        H188   1.077       .  S
C183        C184   1.359       .  D
C184        C193   1.477       .  S
C189        C190   1.405       .  A
C189        C194   1.405       .  A
C189        H199   1.084       .  S
C190        C195   1.482       .  S
C190        C191   1.408       .  A
C191        C192   1.397       .  A
C191        N196   1.430       .  S
C192        C193   1.401       .  A
C192        H197   1.084       .  S
C193        C194   1.408       .  A
C194        N198   1.429       .  S
C195        C200   1.404       .  A
C195        C204   1.398       .  A
N196        O211   1.262       .  A
N196        O212   1.262       .  A
N198        O209   1.262       .  A
N198        O210   1.262       .  A
C200        C201   1.406       .  A
C200        N205   1.434       .  S
C201        C202   1.417       .  A
C201        H206   1.075       .  S
C202        C203   1.423       .  A
C203        C204   1.399       .  A
C203        N207   1.431       .  S
C204        H208   1.084       .  S
N205        O215   1.262       .  A
N205        O216   1.262       .  A
N207        O213   1.262       .  A
N207        O214   1.262       .  A
C217        C218   1.401       .  A
C217        C222   1.398       .  A
C217        H227   1.084       .  S
C218        C223   1.484       .  S
C218        C219   1.413       .  A
C219        C220   1.407       .  A
C219        N224   1.437       .  S
C220        C221   1.408       .  A
C220        H225   1.083       .  S
C221        C222   1.416       .  A
C222        N226   1.430       .  S
C223        C228   1.414       .  A
C223        C232   1.403       .  A
N224        O239   1.263       .  A
N224        O240   1.262       .  A
N226        O237   1.262       .  A
N226        O238   1.262       .  A
C228        C229   1.404       .  A
C228        N233   1.435       .  S
C229        C230   1.404       .  A
C229        H234   1.083       .  S
C230        C231   1.410       .  A
C231        C232   1.400       .  A
C231        N235   1.428       .  S
C232        H236   1.084       .  S
N233        O243   1.262       .  A
N233        O244   1.262       .  A
N235        O241   1.261       .  A
N235        O242   1.262       .  A
C245        C250   1.400       .  A
C245       C1218   1.401       .  A
C245       H1227   1.084       .  S
C246        C251   1.489       .  S
C246       C1217   1.402       .  A
C246       C1219   1.415   1_545  A
C247        C248   1.408       .  A
C247       C1218   1.413       .  A
C247        N252   1.435       .  S
C248        C249   1.408       .  A
C248        H253   1.083       .  S
C249        C250   1.415       .  A
C250        N254   1.432       .  S
C251        C256   1.414       .  A
C251        C260   1.400       .  A
N252        O267   1.263       .  A
N252       O1240   1.262       .  A
N254        O265   1.262       .  A
N254        O266   1.262       .  A
H255       C1217   1.084       .  S
C256        C257   1.408       .  A
C256        N261   1.436       .  S
C257        C258   1.408       .  A
C257        H262   1.083       .  S
C258        C259   1.417       .  A
C259        C260   1.400       .  A
C259        N263   1.431       .  S
C260        H264   1.084       .  S
N261        O271   1.262       .  A
N261       O1244   1.262       .  A
N263        O269   1.261       .  A
N263        O270   1.262       .  A
O268       N1224   1.262       .  A
O272       N1233   1.262       .  A
C273        C274   1.402       .  A
C273        C278   1.403       .  A
C273        H283   1.084       .  S
C274        C279   1.484       .  S
C274        C275   1.409       .  A
C275        C276   1.401       .  A
C275        N280   1.433       .  S
C276        C277   1.408       .  A
C276        H281   1.083       .  S
C277        C278   1.417       .  A
C278        N282   1.431       .  S
C279        C284   1.408       .  A
C279        C288   1.402       .  A
N280        O295   1.262       .  A
N280        O296   1.262       .  A
N282        O293   1.262       .  A
N282        O294   1.262   1_554  A
C284        C285   1.401       .  A
C284        N289   1.431       .  S
C285        C286   1.407       .  A
C285        H290   1.083       .  S
C286        C287   1.415       .  A
C287        C288   1.401       .  A
C287        N291   1.429       .  S
C288        H292   1.084       .  S
N289        O299   1.262       .  A
N289        O300   1.262       .  A
N291        O297   1.262       .  A
N291        O298   1.261       .  A
C301        C306   1.402       .  A
C301       C1274   1.403       .  A
C301        H311   1.084       .  S
C302        C307   1.488       .  S
C302        C303   1.412       .  A
C302       C1273   1.404   1_545  A
C303       C1276   1.401   1_545  A
C303        N308   1.436       .  S
C304        C305   1.407       .  A
C304       C1275   1.402       .  A
C304        H309   1.084   1_554  S
C305        C306   1.416       .  A
C306        N310   1.430       .  S
C307        C312   1.411       .  A
C307        C316   1.404       .  A
N308        O323   1.262       .  A
N308        O324   1.263       .  A
N310        O321   1.262       .  A
N310        O322   1.262       .  A
C312        C313   1.402       .  A
C312        N317   1.432       .  S
C313        C314   1.404       .  A
C313        H318   1.084       .  S
C314        C315   1.415       .  A
C315        C316   1.402       .  A
C315        N319   1.435       .  S
C316        H320   1.084       .  S
N317        O327   1.262       .  A
N317       O1300   1.262       .  A
N319        O325   1.262       .  A
N319        O326   1.262       .  A
O328       N1289   1.262       .  A
C329        C330   1.401       .  A
C329        C334   1.399   1_554  A
C329        H339   1.084       .  S
C330        C335   1.486       .  S
C330        C331   1.415   1_554  A
C331        C332   1.406       .  A
C331        N336   1.438       .  S
C332        C333   1.408       .  A
C332        H337   1.083       .  S
C333        C334   1.417       .  A
C334        N338   1.429       .  S
C335        C340   1.411       .  A
C335        C344   1.399       .  A
N336        O351   1.263       .  A
N336        O352   1.263   1_556  A
N338        O349   1.262   1_556  A
N338        O350   1.262       .  A
C340        C341   1.404       .  A
C340        N345   1.437       .  S
C341        C342   1.413       .  A
C341        H346   1.077       .  S
C342        C343   1.421       .  A
C343        C344   1.399       .  A
C343        N347   1.430       .  S
C344        H348   1.084   1_554  S
N345        O355   1.262       .  A
N345        O356   1.263       .  A
N347        O353   1.262   1_554  A
N347        O354   1.260       .  A
C357        C358   1.401       .  A
C357        C362   1.399       .  A
C357        H367   1.084       .  S
C358        C363   1.489       .  S
C358        C359   1.409       .  A
C359        C360   1.405       .  A
C359        N364   1.434       .  S
C360        C361   1.414       .  A
C360        H365   1.075       .  S
C361        C362   1.422       .  A
C362        N366   1.432       .  S
C363        C368   1.413       .  A
C363        C372   1.406       .  A
N364        O379   1.262       .  A
N364        O380   1.262       .  A
N366        O377   1.262       .  A
N366        O378   1.262       .  A
C368        C369   1.402       .  A
C368        N373   1.435       .  S
C369        C370   1.403   1_556  A
C369        H374   1.084       .  S
C370        C371   1.408       .  A
C371        C372   1.403   1_554  A
C371        N375   1.428       .  S
C372        H376   1.084       .  S
N373        O383   1.262       .  A
N373        O384   1.262       .  A
N375        O381   1.261       .  A
N375        O382   1.262       .  A
C385        C386   1.398       .  A
C385        C390   1.405       .  A
C385        H395   1.083       .  S
C386        C391   1.481       .  S
C386        C387   1.403       .  A
C387        C388   1.400       .  A
C387        N392   1.434       .  S
C388        C389   1.416       .  A
C388        H393   1.069       .  S
C389        C390   1.423       .  A
C390        N394   1.429       .  S
C391        C396   1.407       .  A
C391        C400   1.400       .  A
N392        O407   1.262       .  A
N392        O408   1.262       .  A
N394        O405   1.262       .  A
N394        O406   1.261       .  A
C396        C397   1.401       .  A
C396        N401   1.430       .  S
C397        C398   1.409       .  A
C397        H402   1.083       .  S
C398        C399   1.416       .  A
C399        C400   1.403       .  A
C399        N403   1.428       .  S
C400        H404   1.084       .  S
N401        O411   1.262       .  A
N401        O412   1.262       .  A
N403        O409   1.262       .  A
N403        O410   1.262       .  A
C413        C414   1.401       .  A
C413        C418   1.404       .  A
C413        H423   1.084       .  S
C414        C419   1.481       .  S
C414        C415   1.407       .  A
C415        C416   1.401       .  A
C415        N420   1.431       .  S
C416        C417   1.409       .  A
C416        H421   1.083       .  S
C417        C418   1.417       .  A
C418        N422   1.429       .  S
C419        C424   1.407       .  A
C419        C428   1.397       .  A
N420        O435   1.262       .  A
N420        O436   1.262       .  A
N422        O433   1.262       .  A
N422        O434   1.262       .  A
C424        C425   1.404       .  A
C424        N429   1.429       .  S
C425        C426   1.407       .  A
C425        H430   1.083       .  S
C426        C427   1.419       .  A
C427        C428   1.401       .  A
C427        N431   1.430       .  S
C428        H432   1.084       .  S
N429        O439   1.262       .  A
N429        O440   1.262       .  A
N431        O437   1.261       .  A
N431        O438   1.262       .  A
C441        C442   1.400       .  A
C441        C446   1.400       .  A
C441        H451   1.084       .  S
C442        C447   1.484       .  S
C442        C443   1.411       .  A
C443        C444   1.407       .  A
C443       N1420   1.430       .  S
C444        C445   1.404       .  A
C444        H449   1.084       .  S
C445        C446   1.415       .  A
C446        N450   1.435       .  S
C447        C452   1.413       .  A
C447       C1428   1.399       .  A
N448       C1415   1.433       .  S
N448        O463   1.262       .  A
N448        O464   1.262       .  A
N450        O461   1.262       .  A
N450        O462   1.262       .  A
C452       C1425   1.409       .  A
C452        N457   1.435       .  S
C453        C454   1.405       .  A
C453       C1424   1.410       .  A
C453        H458   1.084       .  S
C454        C455   1.414       .  A
C455        C456   1.402   1_545  A
C455        N459   1.436       .  S
C456       C1419   1.401       .  A
C456        H460   1.084       .  S
N457        O467   1.263       .  A
N457        O468   1.262       .  A
N459        O465   1.262   1_545  A
N459        O466   1.263       .  A
C469        C470   1.404       .  A
C469        C474   1.404       .  A
C469       H1451   1.084       .  S
C470        C475   1.486       .  S
C470        C471   1.411       .  A
C471        C472   1.398       .  A
C471        N476   1.434       .  S
C472        C473   1.405       .  A
C472        H477   1.083       .  S
C473        C474   1.413       .  A
C474        N478   1.429       .  S
C475        C484   1.401       .  A
C475       C1452   1.409       .  A
N476        O491   1.262       .  A
N476        O492   1.262       .  A
N478        O489   1.262       .  A
N478        O490   1.261       .  A
H479       C1441   1.084       .  S
C480        C481   1.403       .  A
C480       C1447   1.410   1_545  A
C480        N485   1.432       .  S
C481        C482   1.410       .  A
C481        H486   1.083       .  S
C482        C483   1.419       .  A
C483       C1456   1.401   1_545  A
C483        N487   1.431       .  S
C484       C1455   1.400       .  A
C484        H488   1.084       .  S
N485        O495   1.262       .  A
N485        O496   1.262       .  A
N487        O493   1.262   1_545  A
N487       O1466   1.262       .  A
O494       N1459   1.262       .  A
C497        C498   1.405       .  A
C497        C502   1.404       .  A
C497        H507   1.084       .  S
C498        C503   1.492       .  S
C498        C499   1.413       .  A
C499        C500   1.402       .  A
C499        N504   1.433       .  S
C500        C501   1.405       .  A
C500        H505   1.083       .  S
C501        C502   1.413       .  A
C502        N506   1.431       .  S
C503        C508   1.413       .  A
C503        C512   1.404       .  A
N504        O519   1.262       .  A
N504        O520   1.262       .  A
N506        O517   1.262       .  A
N506        O518   1.262       .  A
C508        C509   1.403       .  A
C508        N513   1.434       .  S
C509        C510   1.408       .  A
C509        H514   1.083       .  S
C510        C511   1.416       .  A
C511        C512   1.402       .  A
C511        N515   1.429       .  S
C512        H516   1.084       .  S
N513        O523   1.262       .  A
N513        O524   1.262       .  A
N515        O521   1.262       .  A
N515        O522   1.262       .  A
C525        C526   1.405       .  A
C525        C530   1.400       .  A
C525        H535   1.084       .  S
C526        C531   1.488   1_655  S
C526        C527   1.412       .  A
C527        C528   1.403       .  A
C527        N532   1.432   1_655  S
C528        C529   1.405       .  A
C528        H533   1.084       .  S
C529        C530   1.409       .  A
C530        N534   1.432       .  S
C531        C536   1.410       .  A
C531        C540   1.405       .  A
N532        O547   1.262       .  A
N532        O548   1.262       .  A
N534        O545   1.262       .  A
N534        O546   1.262       .  A
C536        C537   1.398       .  A
C536        N541   1.434       .  S
C537        C538   1.408       .  A
C537        H542   1.083       .  S
C538        C539   1.416       .  A
C539        C540   1.405       .  A
C539        N543   1.430       .  S
C540        H544   1.084       .  S
N541        O551   1.262       .  A
N541        O552   1.262       .  A
N543        O549   1.262       .  A
N543        O550   1.262       .  A
C553        C554   1.400       .  A
C553        C558   1.403       .  A
C553        H563   1.084       .  S
C554        C559   1.485       .  S
C554        C555   1.410       .  A
C555        C556   1.403       .  A
C555        N560   1.436       .  S
C556        C557   1.414       .  A
C556        H561   1.074       .  S
C557        C558   1.422       .  A
C558        N562   1.431       .  S
C559        C564   1.415       .  A
C559        C568   1.400       .  A
N560        O575   1.263       .  A
N560        O576   1.262       .  A
N562        O573   1.262       .  A
N562        O574   1.262       .  A
C564        C565   1.407       .  A
C564        N569   1.436       .  S
C565        C566   1.403       .  A
C565        H570   1.084       .  S
C566        C567   1.415       .  A
C567        C568   1.400       .  A
C567        N571   1.436       .  S
C568        H572   1.084       .  S
N569        O579   1.262       .  A
N569        O580   1.263       .  A
N571        O577   1.263       .  A
N571        O578   1.263       .  A
C581        C582   1.405       .  A
C581        C586   1.402       .  A
C581        H591   1.084       .  S
C582       C1559   1.495       .  S
C582        C583   1.414       .  A
C583        C584   1.405       .  A
C583       N1560   1.435       .  S
C584        C585   1.407       .  A
C584        H589   1.084       .  S
C585        C586   1.413       .  A
C586        N590   1.429       .  S
C587       C1554   1.494   1_545  S
C587        C592   1.412       .  A
C587        C596   1.405       .  A
N588       C1555   1.434   1_545  S
N588        O603   1.262       .  A
N588        O604   1.262       .  A
N590        O601   1.262       .  A
N590        O602   1.261       .  A
C592        C593   1.404       .  A
C592       N1569   1.433   1_545  S
C593        C594   1.408       .  A
C593        H598   1.083       .  S
C594        C595   1.416       .  A
C595        C596   1.404       .  A
C595        N599   1.431       .  S
C596        H600   1.084       .  S
N597       C1564   1.434       .  S
N597        O608   1.262       .  A
N597       O1579   1.262       .  A
N599        O605   1.262       .  A
N599        O606   1.262       .  A
O607       N1569   1.262       .  A
C609        C610   1.403       .  A
C609        C614   1.402       .  A
C609        H619   1.084       .  S
C610        C615   1.490       .  S
C610        C611   1.412       .  A
C611        C612   1.403       .  A
C611        N616   1.434       .  S
C612        C613   1.408       .  A
C612        H617   1.083       .  S
C613        C614   1.417       .  A
C614        N618   1.429       .  S
C615        C620   1.413       .  A
C615        C624   1.403       .  A
N616        O631   1.262       .  A
N616        O632   1.262       .  A
N618        O629   1.262       .  A
N618        O630   1.262       .  A
C620        C621   1.405       .  A
C620        N625   1.434       .  S
C621        C622   1.403       .  A
C621        H626   1.084       .  S
C622        C623   1.415       .  A
C623        C624   1.401       .  A
C623        N627   1.433       .  S
C624        H628   1.084       .  S
N625        O635   1.262       .  A
N625        O636   1.263       .  A
N627        O633   1.262       .  A
N627        O634   1.262       .  A
C637        C638   1.404   1_564  A
C637        C642   1.404   1_565  A
C637       H1619   1.084       .  S
C638       C1615   1.493   1_545  S
C638        C639   1.414       .  A
C639        C640   1.403       .  A
C639        N644   1.435       .  S
C640        C641   1.407   1_556  A
C640        H645   1.083       .  S
C641        C642   1.418       .  A
C642        N646   1.430       .  S
C643       C1610   1.494       .  S
C643        C648   1.413       .  A
C643        C652   1.403       .  A
N644        O659   1.262       .  A
N644        O660   1.262       .  A
N646        O658   1.262       .  A
N646       O1629   1.262       .  A
H647       C1609   1.084       .  S
C648        C649   1.407       .  A
C648        N653   1.432       .  S
C649        C650   1.405       .  A
C649        H654   1.084       .  S
C650        C651   1.418       .  A
C651        C652   1.402       .  A
C651        N655   1.437       .  S
C652        H656   1.084       .  S
N653        O663   1.262       .  A
N653       O1636   1.262       .  A
N655        O661   1.262       .  A
N655        O662   1.262       .  A
O657       N1618   1.262       .  A
O664       N1625   1.262   1_545  A
C665        C666   1.405       .  A
C665        C670   1.404       .  A
C665        H675   1.084       .  S
C666        C671   1.493       .  S
C666        C667   1.414       .  A
C667        C668   1.404   1_556  A
C667        N672   1.434   1_556  S
C668        C669   1.406       .  A
C668        H673   1.084       .  S
C669        C670   1.416   1_554  A
C670        N674   1.433       .  S
C671        C676   1.413       .  A
C671        C680   1.403       .  A
N672        O687   1.262       .  A
N672        O688   1.262   1_554  A
N674        O685   1.262       .  A
N674        O686   1.263       .  A
C676        C677   1.406       .  A
C676        N681   1.434       .  S
C677        C678   1.407       .  A
C677        H682   1.083       .  S
C678        C679   1.415       .  A
C679        C680   1.401       .  A
C679        N683   1.429       .  S
C680        H684   1.084       .  S
N681        O691   1.262       .  A
N681        O692   1.263       .  A
N683        O689   1.261       .  A
N683        O690   1.262       .  A
C693        C694   1.403       .  A
C693        C698   1.402       .  A
C693        H703   1.084       .  S
C694        C699   1.486   1_655  S
C694        C695   1.410       .  A
C695        C696   1.400       .  A
C695        N700   1.432       .  S
C696        C697   1.408       .  A
C696        H701   1.083       .  S
C697        C698   1.416       .  A
C698        N702   1.430       .  S
C699        C704   1.410       .  A
C699        C708   1.404       .  A
N700        O715   1.262       .  A
N700        O716   1.262       .  A
N702        O713   1.262       .  A
N702        O714   1.262       .  A
C704        C705   1.400       .  A
C704        N709   1.430       .  S
C705        C706   1.403       .  A
C705        H710   1.084       .  S
C706        C707   1.415       .  A
C707        C708   1.402       .  A
C707        N711   1.434       .  S
C708        H712   1.084       .  S
N709        O719   1.262       .  A
N709        O720   1.262       .  A
N711        O717   1.263       .  A
N711        O718   1.262       .  A
C721        C722   1.401       .  A
C721        C726   1.402       .  A
C721        H731   1.084   1_554  S
C722        C727   1.481       .  S
C722        C723   1.406       .  A
C723        C724   1.399       .  A
C723        N728   1.430       .  S
C724        C725   1.408       .  A
C724        H729   1.083       .  S
C725        C726   1.419       .  A
C726        N730   1.431   1_554  S
C727        C732   1.405   1_554  A
C727        C736   1.397       .  A
N728        O743   1.262       .  A
N728        O744   1.262       .  A
N730        O741   1.262       .  A
N730        O742   1.262       .  A
C732        C733   1.402       .  A
C732        N737   1.432       .  S
C733        C734   1.414       .  A
C733        H738   1.076       .  S
C734        C735   1.425   1_556  A
C735        C736   1.400       .  A
C735        N739   1.433       .  S
C736        H740   1.084       .  S
N737        O747   1.262       .  A
N737        O748   1.262   1_556  A
N739        O745   1.262       .  A
N739        O746   1.262       .  A
C749        C750   1.400       .  A
C749        C754   1.404       .  A
C749        H759   1.084       .  S
C750        C755   1.475       .  S
C750        C751   1.406       .  A
C751        C752   1.398       .  A
C751        N756   1.430       .  S
C752        C753   1.399       .  A
C752        H757   1.080       .  S
C753        C754   1.417       .  A
C754        N758   1.439       .  S
C755        C760   1.410       .  A
C755        C764   1.401       .  A
N756        O771   1.262       .  A
N756        O772   1.262       .  A
N758        O769   1.263       .  A
N758        O770   1.261       .  A
C760        C761   1.399       .  A
C760        N765   1.438       .  S
C761        C762   1.409       .  A
C761        H766   1.083       .  S
C762        C763   1.415       .  A
C763        C764   1.401       .  A
C763        N767   1.429       .  S
C764        H768   1.084       .  S
N765        O775   1.263       .  A
N765        O776   1.263       .  A
N767        O773   1.262       .  A
N767        O774   1.262       .  A
C777        C778   1.399       .  A
C777        C782   1.397       .  A
C777        H787   1.084       .  S
C778        C783   1.485       .  S
C778        C779   1.409       .  A
C779        C780   1.406       .  A
C779        N784   1.435       .  S
C780        C781   1.416       .  A
C780        H785   1.075       .  S
C781        C782   1.420       .  A
C782        N786   1.431       .  S
C783        C788   1.416       .  A
C783        C792   1.402       .  A
N784        O799   1.262       .  A
N784        O800   1.262       .  A
N786        O797   1.262       .  A
N786        O798   1.262       .  A
C788        C789   1.407       .  A
C788        N793   1.436       .  S
C789        C790   1.403       .  A
C789        H794   1.084       .  S
C790        C791   1.412       .  A
C791        C792   1.399       .  A
C791        N795   1.438       .  S
C792        H796   1.084       .  S
N793        O803   1.262       .  A
N793        O804   1.263       .  A
N795        O801   1.262       .  A
N795        O802   1.263       .  A
C805        C806   1.401       .  A
C805        C810   1.399       .  A
C805        H815   1.084       .  S
C806        C811   1.484       .  S
C806        C807   1.415       .  A
C807        C808   1.405       .  A
C807        N812   1.438       .  S
C808        C809   1.404       .  A
C808        H813   1.084       .  S
C809        C810   1.413       .  A
C810        N814   1.429       .  S
C811        C816   1.410       .  A
C811        C820   1.399       .  A
N812        O827   1.263       .  A
N812        O828   1.263       .  A
N814        O825   1.262       .  A
N814        O826   1.262       .  A
C816        C817   1.402       .  A
C816        N821   1.437       .  S
C817        C818   1.413       .  A
C817        H822   1.075       .  S
C818        C819   1.424       .  A
C819        C820   1.401       .  A
C819        N823   1.432       .  S
C820        H824   1.084       .  S
N821        O831   1.263       .  A
N821        O832   1.262       .  A
N823        O829   1.262       .  A
N823        O830   1.262       .  A
C833        C838   1.406       .  A
C833       C1806   1.405       .  A
C833        H843   1.084       .  S
C834        C839   1.488       .  S
C834        C835   1.412       .  A
C834       C1805   1.405   1_545  A
C835       C1808   1.399   1_545  A
C835        N840   1.435       .  S
C836        C837   1.406       .  A
C836       C1807   1.400       .  A
C836        H841   1.084       .  S
C837        C838   1.414       .  A
C838        N842   1.431       .  S
C839        C844   1.410       .  A
C839        C848   1.403       .  A
N840        O855   1.262       .  A
N840        O856   1.263       .  A
N842        O853   1.262       .  A
N842        O854   1.262       .  A
C844        C845   1.404       .  A
C844        N849   1.431       .  S
C845        C846   1.406       .  A
C845        H850   1.083       .  S
C846        C847   1.418       .  A
C847        C848   1.400       .  A
C847        N851   1.434       .  S
C848        H852   1.084       .  S
N849        O859   1.262       .  A
N849        O860   1.262       .  A
N851        O857   1.262       .  A
N851        O858   1.262       .  A
C861        C862   1.404       .  A
C861        C866   1.407       .  A
C861        H871   1.084       .  S
C862        C867   1.488       .  S
C862        C863   1.408       .  A
C863        C864   1.399       .  A
C863        N868   1.432       .  S
C864        C865   1.409       .  A
C864        H869   1.083       .  S
C865        C866   1.418       .  A
C866        N870   1.431       .  S
C867        C872   1.410       .  A
C867        C876   1.405       .  A
N868        O883   1.262       .  A
N868        O884   1.262       .  A
N870        O881   1.262       .  A
N870        O882   1.262       .  A
C872        C873   1.403       .  A
C872        N877   1.431       .  S
C873        C874   1.405       .  A
C873        H878   1.084       .  S
C874        C875   1.410       .  A
C875        C876   1.402       .  A
C875        N879   1.429       .  S
C876        H880   1.084       .  S
N877        O887   1.262       .  A
N877        O888   1.262       .  A
N879        O885   1.262       .  A
N879        O886   1.261       .  A
C889        C894   1.400       .  A
C889       C1862   1.402       .  A
C889        H899   1.084       .  S
C890        C895   1.488       .  S
C890        C891   1.412       .  A
C890       C1861   1.403   1_545  A
C891       C1864   1.405   1_545  A
C891        N896   1.436       .  S
C892        C893   1.409       .  A
C892       C1863   1.404       .  A
C892        H897   1.083       .  S
C893        C894   1.416       .  A
C894        N898   1.429       .  S
C895        C900   1.411       .  A
C895        C904   1.397       .  A
N896        O911   1.263       .  A
N896        O912   1.262       .  A
N898        O909   1.262       .  A
N898        O910   1.262       .  A
C900        C901   1.407       .  A
C900        N905   1.436       .  S
C901        C902   1.413       .  A
C901        H906   1.082       .  S
C902        C903   1.423       .  A
C903        C904   1.402       .  A
C903        N907   1.427       .  S
C904        H908   1.084       .  S
N905        O915   1.263       .  A
N905       O1888   1.262       .  A
N907        O913   1.261       .  A
N907        O914   1.262       .  A
O916       N1877   1.262       .  A
C917        C918   1.402       .  A
C917        C922   1.400       .  A
C917        H927   1.084       .  S
C918        C923   1.488       .  S
C918        C919   1.412       .  A
C919        C920   1.403       .  A
C919        N924   1.435       .  S
C920        C921   1.408       .  A
C920        H925   1.083       .  S
C921        C922   1.417       .  A
C922        N926   1.429       .  S
C923        C928   1.410       .  A
C923        C932   1.403       .  A
N924        O939   1.262       .  A
N924        O940   1.262       .  A
N926        O937   1.262       .  A
N926        O938   1.262       .  A
C928        C929   1.401       .  A
C928        N933   1.433       .  S
C929        C930   1.409       .  A
C929        H934   1.083       .  S
C930        C931   1.416       .  A
C931        C932   1.402       .  A
C931        N935   1.427       .  S
C932        H936   1.084       .  S
N933        O943   1.262       .  A
N933        O944   1.262       .  A
N935        O941   1.262       .  A
N935        O942   1.260       .  A
C945        C946   1.402       .  A
C945        C950   1.401       .  A
C945        H955   1.084       .  S
C946        C951   1.480       .  S
C946        C947   1.412       .  A
C947        C948   1.402       .  A
C947        N952   1.435       .  S
C948        C949   1.404       .  A
C948        H953   1.084       .  S
C949        C950   1.410       .  A
C950        N954   1.432       .  S
C951        C956   1.411       .  A
C951        C960   1.399       .  A
N952        O967   1.263       .  A
N952        O968   1.262       .  A
N954        O965   1.262       .  A
N954        O966   1.262       .  A
C956        C957   1.403       .  A
C956        N961   1.433       .  S
C957        C958   1.407       .  A
C957        H962   1.084       .  S
C958        C959   1.417       .  A
C959        C960   1.399       .  A
C959        N963   1.430       .  S
C960        H964   1.084       .  S
N961        O971   1.262       .  A
N961        O972   1.262       .  A
N963        O969   1.262       .  A
N963        O970   1.262       .  A
Zn973       O977   1.951       .  S
Zn973       O978   2.002       .  S
Zn973       O982   2.015       .  S
Zn973       O989   2.008       .  S
Zn974       O977   1.977       .  S
Zn974       O979   2.038       .  S
Zn974       O981   2.039       .  S
Zn974       O985   2.045       .  S
Zn975       O977   1.958       .  S
Zn975       O980   2.032       .  S
Zn975       O983   2.009       .  S
Zn975       O986   2.021       .  S
Zn976       O977   1.958       .  S
Zn976       O984   2.015       .  S
Zn976       O987   2.013       .  S
Zn976       O988   2.023       .  S
O978        C990   1.274       .  A
O979        C991   1.277       .  A
O980        C992   1.274       .  A
O981        C990   1.276       .  A
O982        C992   1.273       .  A
O983        C991   1.274       .  A
O984        C993   1.273       .  A
O985        C994   1.276       .  A
O986        C993   1.275       .  A
O987        C994   1.274       .  A
O988        C995   1.274       .  A
O989        C995   1.272       .  A
C990       C1809   1.488       .  S
C991       C1930   1.489       .  S
C992       C1865   1.495       .  S
C993       C1893   1.492       .  S
C994       C1837   1.496       .  S
C995       C1781   1.480       .  S
C996        C997   1.537       .  S
C996       C1002   1.538       .  S
C996       C1000   1.538       .  S
C996       C1753   1.538       .  S
C997       H1004   1.085       .  S
C997        C998   1.371       .  D
C998        C999   1.544       .  S
C998       C1874   1.506       .  S
C999       C1003   1.541       .  S
C999       C1001   1.545       .  S
C999       H1005   1.095       .  S
C1000      H1006   1.081       .  S
C1000      C1001   1.360       .  D
C1001      C1725   1.476       .  S
C1002      H1007   1.085       .  S
C1002      C1003   1.369       .  D
C1003      C1902   1.499       .  S
C1008      C1009   1.537       .  S
C1008      C1014   1.531   1_556  S
C1008      C1012   1.548       .  S
C1008      C1706   1.540       .  S
C1009      H1016   1.083       .  S
C1009      C1010   1.369       .  D
C1010      C1011   1.543       .  S
C1010      C1818   1.491       .  S
C1011      C1015   1.536       .  S
C1011      C1013   1.539       .  S
C1011      H1017   1.109       .  S
C1012      H1018   1.081       .  S
C1012      C1013   1.368       .  D
C1013      C1846   1.491       .  S
C1014      H1019   1.086       .  S
C1014      C1015   1.363   1_554  D
C1015      C1762   1.480   1_556  S
Zn1020     O1024   1.960       .  S
Zn1020     O1025   2.017       .  S
Zn1020     O1029   2.029       .  S
Zn1020     O1036   2.024       .  S
Zn1021     O1024   1.964       .  S
Zn1021     O1026   2.016       .  S
Zn1021     O1028   2.022       .  S
Zn1021     O1032   2.024       .  S
Zn1022     O1024   1.965       .  S
Zn1022     O1027   2.035       .  S
Zn1022     O1030   2.027       .  S
Zn1022     O1033   2.015       .  S
Zn1023     O1024   1.962       .  S
Zn1023     O1031   2.017       .  S
Zn1023     O1034   2.025       .  S
Zn1023     O1035   2.029       .  S
O1025      C1037   1.275       .  A
O1026      C1038   1.274       .  A
O1027      C1039   1.277       .  A
O1028      C1037   1.274       .  A
O1029      C1039   1.274       .  A
O1030      C1038   1.275       .  A
O1031      C1040   1.275       .  A
O1032      C1041   1.273       .  A
O1033      C1040   1.273       .  A
O1034      C1041   1.275       .  A
O1035      C1042   1.275       .  A
O1036      C1042   1.275       .  A
C1037      C1669   1.492       .  S
C1038      C1641   1.489       .  S
C1039      C1613   1.499       .  S
C1040      C1697   1.488       .  S
C1041      C1585   1.495       .  S
C1042      C1566   1.494       .  S
C1043      C1044   1.548       .  S
C1043      C1049   1.544       .  S
C1043      C1047   1.533       .  S
C1043      C1529   1.542       .  S
C1044      H1051   1.080       .  S
C1044      C1045   1.367       .  D
C1045      C1046   1.537       .  S
C1045      C1622   1.489       .  S
C1046      C1050   1.540       .  S
C1046      C1048   1.541       .  S
C1046      H1052   1.108       .  S
C1047      H1053   1.086       .  S
C1047      C1048   1.362       .  D
C1048      C1501   1.484       .  S
C1049      H1054   1.085       .  S
C1049      C1050   1.369       .  D
C1050      C1650   1.496       .  S
C1055      C1056   1.539       .  S
C1055      C1061   1.528       .  S
C1055      C1059   1.548       .  S
C1055      C1790   1.540       .  S
C1056      H1063   1.085       .  S
C1056      C1057   1.371       .  D
C1057      C1058   1.544       .  S
C1057      C1557   1.496       .  S
C1058      C1062   1.539       .  S
C1058      C1060   1.540       .  S
C1058      H1064   1.107       .  S
C1059      H1065   1.080       .  S
C1059      C1060   1.369       .  D
C1060      C1594   1.488       .  S
C1061      H1066   1.086       .  S
C1061      C1062   1.361       .  D
C1062      C1538   1.485       .  S
Zn1067     O1071   1.958       .  S
Zn1067     O1072   2.021       .  S
Zn1067     O1076   2.025       .  S
Zn1067     O1083   2.043       .  S
Zn1068     O1071   1.956       .  S
Zn1068     O1073   1.986       .  S
Zn1068     O1075   2.013       .  S
Zn1068     O1079   2.021       .  S
Zn1069     O1071   1.974       .  S
Zn1069     O1074   2.037       .  S
Zn1069     O1077   2.034       .  S
Zn1069     O1080   2.038       .  S
Zn1070     O1071   1.950       .  S
Zn1070     O1078   2.011       .  S
Zn1070     O1081   2.011       .  S
Zn1070     O1082   2.009       .  S
O1072      C1084   1.272       .  A
O1073      C1085   1.272       .  A
O1074      C1086   1.276       .  A
O1075      C1084   1.273       .  A
O1076      C1086   1.276       .  A
O1077      C1085   1.275       .  A
O1078      C1087   1.274       .  A
O1079      C1088   1.272       .  A
O1080      C1087   1.276       .  A
O1081      C1088   1.273       .  A
O1082      C1089   1.274       .  A
O1083      C1089   1.277       .  A
C1084      C1454   1.493       .  S
C1085      C1734   1.488       .  S
C1086      C1426   1.484       .  S
C1087      C1389   1.491       .  S
C1088      C1482   1.492       .  S
C1089      C1370   1.495       .  S
C1090      C1091   1.537       .  S
C1090      C1096   1.535       .  S
C1090      C1094   1.546       .  S
C1090      C1333   1.540       .  S
C1091      H1098   1.085       .  S
C1091      C1092   1.368       .  D
C1092      C1093   1.542       .  S
C1092      C1473   1.497       .  S
C1093      C1097   1.543       .  S
C1093      C1095   1.540       .  S
C1093      H1099   1.107       .  S
C1094      H1100   1.081       .  S
C1094      C1095   1.365       .  D
C1095      C1921   1.484       .  S
C1096      H1101   1.086       .  S
C1096      C1097   1.366       .  D
C1097      C1445   1.493       .  S
C1102      C1103   1.536       .  S
C1102      C1108   1.535       .  S
C1102      C1106   1.544       .  S
C1102      C1314   1.539       .  S
C1103      H1110   1.085       .  S
C1103      C1104   1.370       .  D
C1104      C1105   1.547       .  S
C1104      C1398   1.496       .  S
C1105      C1109   1.540       .  S
C1105      C1107   1.540       .  S
C1105      H1111   1.110       .  S
C1106      H1112   1.082       .  S
C1106      C1107   1.365       .  D
C1107      C1417   1.485       .  S
C1108      H1113   1.086       .  S
C1108      C1109   1.364       .  D
C1109      C1342   1.485       .  S
Zn1114     O1118   1.956       .  S
Zn1114     O1119   2.025       .  S
Zn1114     O1123   2.012       .  S
Zn1114     O1130   2.016       .  S
Zn1115     O1118   1.950       .  S
Zn1115     O1120   2.013       .  S
Zn1115     O1122   2.013       .  S
Zn1115     O1126   2.005       .  S
Zn1116     O1118   1.959       .  S
Zn1116     O1121   2.022       .  S
Zn1116     O1124   2.022       .  S
Zn1116     O1127   1.999       .  S
Zn1117     O1118   1.977       .  S
Zn1117     O1125   2.038       .  S
Zn1117     O1128   2.046       .  S
Zn1117     O1129   2.040       .  S
O1119      C1131   1.275       .  A
O1120      C1132   1.273       .  A
O1121      C1133   1.273       .  A
O1122      C1131   1.273       .  A
O1123      C1133   1.273       .  A
O1124      C1132   1.273       .  A
O1125      C1134   1.276       .  A
O1126      C1135   1.272       .  A
O1127      C1134   1.273       .  A
O1128      C1135   1.278       .  A
O1129      C1136   1.277       .  A
O1130      C1136   1.274       .  A
C1131      C1305   1.492       .  S
C1132      C1249   1.492   1_556  S
C1133      C1277   1.489   1_556  S
C1134      C1510   1.492       .  S
C1135      C1193   1.494       .  S
C1136      C1221   1.492       .  S
C1137      C1138   1.539       .  S
C1137      C1143   1.542       .  S
C1137      C1141   1.547       .  S
C1137      C1174   1.543       .  S
C1138      H1145   1.085       .  S
C1138      C1139   1.368       .  D
C1139      C1140   1.536       .  S
C1139      C1258   1.489       .  S
C1140      C1144   1.536       .  S
C1140      C1142   1.536       .  S
C1140      H1146   1.108       .  S
C1141      H1147   1.079       .  S
C1141      C1142   1.367       .  D
C1142      C1678   1.487       .  S
C1143      H1148   1.086       .  S
C1143      C1144   1.367       .  D
C1144      C1286   1.489       .  S
C1149      C1150   1.538       .  S
C1149      C1155   1.544       .  S
C1149      C1153   1.538       .  S
C1149      C1361   1.547       .  S
C1150      H1157   1.084       .  S
C1150      C1151   1.370       .  D
C1151      C1152   1.543       .  S
C1151      C1202   1.493       .  S
C1152      C1156   1.535       .  S
C1152      C1154   1.547       .  S
C1152      H1158   1.110       .  S
C1153      H1159   1.084       .  S
C1153      C1154   1.372       .  D
C1154      C1230   1.499       .  S
C1155      H1160   1.052       .  S
C1155      C1156   1.362       .  D
C1156      C1165   1.480       .  S
C1161      C1162   1.407       .  A
C1161      C1166   1.406       .  A
C1161      H1171   1.084       .  S
C1162      C1167   1.485       .  S
C1162      C1163   1.410       .  A
C1163      C1164   1.396       .  A
C1163      N1168   1.431       .  S
C1164      C1165   1.402       .  A
C1164      H1169   1.085       .  S
C1165      C1166   1.409       .  A
C1166      N1170   1.429       .  S
C1167      C1172   1.404       .  A
C1167      C1176   1.399       .  A
N1168      O1183   1.262       .  A
N1168      O1184   1.262       .  A
N1170      O1181   1.262       .  A
N1170      O1182   1.262       .  A
C1172      C1173   1.405       .  A
C1172      N1177   1.430       .  S
C1173      C1174   1.417       .  A
C1173      H1178   1.075       .  S
C1174      C1175   1.422       .  A
C1175      C1176   1.399       .  A
C1175      N1179   1.430       .  S
C1176      H1180   1.084       .  S
N1177      O1187   1.262       .  A
N1177      O1188   1.262       .  A
N1179      O1185   1.261       .  A
N1179      O1186   1.262       .  A
C1189      C1190   1.400       .  A
C1189      C1194   1.399       .  A
C1189      H1199   1.084       .  S
C1190      C1195   1.486       .  S
C1190      C1191   1.413       .  A
C1191      C1192   1.408       .  A
C1191      N1196   1.436       .  S
C1192      C1193   1.409       .  A
C1192      H1197   1.083       .  S
C1193      C1194   1.418       .  A
C1194      N1198   1.430       .  S
C1195      C1200   1.412       .  A
C1195      C1204   1.403       .  A
N1196      O1211   1.262       .  A
N1196      O1212   1.262       .  A
N1198      O1209   1.262       .  A
N1198      O1210   1.262       .  A
C1200      C1201   1.404       .  A
C1200      N1205   1.435       .  S
C1201      C1202   1.407       .  A
C1201      H1206   1.084       .  S
C1202      C1203   1.413       .  A
C1203      C1204   1.403       .  A
C1203      N1207   1.430       .  S
C1204      H1208   1.084       .  S
N1205      O1215   1.262       .  A
N1205      O1216   1.262       .  A
N1207      O1213   1.261       .  A
N1207      O1214   1.262       .  A
C1217      C1222   1.400   1_545  A
C1218      C1223   1.487       .  S
C1219      C1220   1.408       .  A
C1219      N1224   1.437       .  S
C1220      C1221   1.408       .  A
C1220      H1225   1.083       .  S
C1221      C1222   1.416       .  A
C1222      N1226   1.432       .  S
C1223      C1228   1.412       .  A
C1223      C1232   1.399       .  A
N1224      O1239   1.262       .  A
N1226      O1237   1.262   1_565  A
N1226      O1238   1.262   1_565  A
C1228      C1229   1.407       .  A
C1228      N1233   1.433       .  S
C1229      C1230   1.408       .  A
C1229      H1234   1.083       .  S
C1230      C1231   1.418       .  A
C1231      C1232   1.400       .  A
C1231      N1235   1.430       .  S
C1232      H1236   1.084       .  S
N1233      O1243   1.262       .  A
N1235      O1241   1.262       .  A
N1235      O1242   1.262       .  A
C1245      C1246   1.403       .  A
C1245      C1250   1.402       .  A
C1245      H1255   1.084       .  S
C1246      C1251   1.487       .  S
C1246      C1247   1.411       .  A
C1247      C1248   1.401       .  A
C1247      N1252   1.434       .  S
C1248      C1249   1.408       .  A
C1248      H1253   1.083       .  S
C1249      C1250   1.417       .  A
C1250      N1254   1.430       .  S
C1251      C1256   1.411       .  A
C1251      C1260   1.404       .  A
N1252      O1267   1.262       .  A
N1252      O1268   1.262       .  A
N1254      O1265   1.262       .  A
N1254      O1266   1.262       .  A
C1256      C1257   1.401       .  A
C1256      N1261   1.432       .  S
C1257      C1258   1.405       .  A
C1257      H1262   1.084       .  S
C1258      C1259   1.413       .  A
C1259      C1260   1.401       .  A
C1259      N1263   1.429       .  S
C1260      H1264   1.084       .  S
N1261      O1271   1.262       .  A
N1261      O1272   1.262       .  A
N1263      O1269   1.262       .  A
N1263      O1270   1.261       .  A
C1273      C1278   1.403       .  A
C1273      H1283   1.084       .  S
C1274      C1279   1.487       .  S
C1274      C1275   1.412       .  A
C1275      N1280   1.435       .  S
C1276      C1277   1.407       .  A
C1276      H1281   1.084   1_554  S
C1277      C1278   1.416       .  A
C1278      N1282   1.430       .  S
C1279      C1284   1.411       .  A
C1279      C1288   1.403       .  A
N1280      O1295   1.262       .  A
N1280      O1296   1.263       .  A
N1282      O1293   1.262       .  A
N1282      O1294   1.262       .  A
C1284      C1285   1.403       .  A
C1284      N1289   1.432       .  S
C1285      C1286   1.405       .  A
C1285      H1290   1.084       .  S
C1286      C1287   1.415       .  A
C1287      C1288   1.401       .  A
C1287      N1291   1.432       .  S
C1288      H1292   1.084       .  S
N1289      O1299   1.262       .  A
N1291      O1297   1.262       .  A
N1291      O1298   1.262       .  A
C1301      C1302   1.402       .  A
C1301      C1306   1.398   1_554  A
C1301      H1311   1.084       .  S
C1302      C1307   1.487       .  S
C1302      C1303   1.415   1_554  A
C1303      C1304   1.406       .  A
C1303      N1308   1.438       .  S
C1304      C1305   1.408       .  A
C1304      H1309   1.083       .  S
C1305      C1306   1.416       .  A
C1306      N1310   1.429       .  S
C1307      C1312   1.412       .  A
C1307      C1316   1.399       .  A
N1308      O1323   1.263       .  A
N1308      O1324   1.263   1_556  A
N1310      O1321   1.262   1_556  A
N1310      O1322   1.262       .  A
C1312      C1313   1.405       .  A
C1312      N1317   1.438       .  S
C1313      C1314   1.413       .  A
C1313      H1318   1.076       .  S
C1314      C1315   1.420       .  A
C1315      C1316   1.398       .  A
C1315      N1319   1.429       .  S
C1316      H1320   1.084   1_554  S
N1317      O1327   1.262       .  A
N1317      O1328   1.263       .  A
N1319      O1325   1.262   1_554  A
N1319      O1326   1.261       .  A
C1329      C1330   1.401       .  A
C1329      C1334   1.399       .  A
C1329      H1339   1.084       .  S
C1330      C1335   1.491       .  S
C1330      C1331   1.409       .  A
C1331      C1332   1.405       .  A
C1331      N1336   1.433       .  S
C1332      C1333   1.414       .  A
C1332      H1337   1.075       .  S
C1333      C1334   1.422       .  A
C1334      N1338   1.432       .  S
C1335      C1340   1.414       .  A
C1335      C1344   1.406       .  A
N1336      O1351   1.262       .  A
N1336      O1352   1.262       .  A
N1338      O1349   1.262       .  A
N1338      O1350   1.262       .  A
C1340      C1341   1.401       .  A
C1340      N1345   1.435       .  S
C1341      C1342   1.403   1_556  A
C1341      H1346   1.084       .  S
C1342      C1343   1.409       .  A
C1343      C1344   1.403   1_554  A
C1343      N1347   1.428       .  S
C1344      H1348   1.084       .  S
N1345      O1355   1.262       .  A
N1345      O1356   1.262       .  A
N1347      O1353   1.261       .  A
N1347      O1354   1.262       .  A
C1357      C1358   1.399       .  A
C1357      C1362   1.407       .  A
C1357      H1367   1.079       .  S
C1358      C1363   1.480       .  S
C1358      C1359   1.398       .  A
C1359      C1360   1.401       .  A
C1359      N1364   1.432       .  S
C1360      C1361   1.420       .  A
C1360      H1365   1.030       .  S
C1361      C1362   1.422       .  A
C1362      N1366   1.430       .  S
C1363      C1368   1.404       .  A
C1363      C1372   1.401       .  A
N1364      O1379   1.261       .  A
N1364      O1380   1.262       .  A
N1366      O1377   1.262       .  A
N1366      O1378   1.261       .  A
C1368      C1369   1.401       .  A
C1368      N1373   1.430       .  S
C1369      C1370   1.412       .  A
C1369      H1374   1.083       .  S
C1370      C1371   1.417       .  A
C1371      C1372   1.403       .  A
C1371      N1375   1.429       .  S
C1372      H1376   1.084       .  S
N1373      O1383   1.262       .  A
N1373      O1384   1.262       .  A
N1375      O1381   1.262       .  A
N1375      O1382   1.262       .  A
C1385      C1386   1.401       .  A
C1385      C1390   1.404       .  A
C1385      H1395   1.084       .  S
C1386      C1391   1.480       .  S
C1386      C1387   1.405       .  A
C1387      C1388   1.400       .  A
C1387      N1392   1.429       .  S
C1388      C1389   1.409       .  A
C1388      H1393   1.084       .  S
C1389      C1390   1.417       .  A
C1390      N1394   1.429       .  S
C1391      C1396   1.407       .  A
C1391      C1400   1.397       .  A
N1392      O1407   1.262       .  A
N1392      O1408   1.262       .  A
N1394      O1405   1.262       .  A
N1394      O1406   1.262       .  A
C1396      C1397   1.404       .  A
C1396      N1401   1.429       .  S
C1397      C1398   1.407       .  A
C1397      H1402   1.083       .  S
C1398      C1399   1.420       .  A
C1399      C1400   1.402       .  A
C1399      N1403   1.431       .  S
C1400      H1404   1.084       .  S
N1401      O1411   1.262       .  A
N1401      O1412   1.262       .  A
N1403      O1409   1.261       .  A
N1403      O1410   1.263       .  A
C1413      C1414   1.402       .  A
C1413      C1418   1.400       .  A
C1413      H1423   1.084       .  S
C1414      C1419   1.489       .  S
C1414      C1415   1.415       .  A
C1415      C1416   1.408       .  A
C1416      C1417   1.403       .  A
C1416      H1421   1.084       .  S
C1417      C1418   1.412       .  A
C1418      N1422   1.434       .  S
C1419      C1424   1.416   1_565  A
N1420      O1435   1.262       .  A
N1420      O1436   1.262       .  A
N1422      O1433   1.262       .  A
N1422      O1434   1.262       .  A
C1424      N1429   1.436       .  S
C1425      C1426   1.406       .  A
C1425      H1430   1.084       .  S
C1426      C1427   1.414       .  A
C1427      C1428   1.400       .  A
C1427      N1431   1.433       .  S
C1428      H1432   1.084       .  S
N1429      O1439   1.263       .  A
N1429      O1440   1.262       .  A
N1431      O1437   1.262       .  A
N1431      O1438   1.263       .  A
C1441      C1442   1.405       .  A
C1441      C1446   1.406       .  A
C1442      C1447   1.489       .  S
C1442      C1443   1.412       .  A
C1443      C1444   1.399       .  A
C1443      N1448   1.434       .  S
C1444      C1445   1.406       .  A
C1444      H1449   1.083       .  S
C1445      C1446   1.414       .  A
C1446      N1450   1.430       .  S
C1447      C1456   1.402       .  A
N1448      O1463   1.262       .  A
N1448      O1464   1.262   1_565  A
N1450      O1461   1.262       .  A
N1450      O1462   1.261       .  A
C1452      C1453   1.402       .  A
C1452      N1457   1.431       .  S
C1453      C1454   1.410       .  A
C1453      H1458   1.083       .  S
C1454      C1455   1.419       .  A
C1455      N1459   1.431       .  S
C1456      H1460   1.084       .  S
N1457      O1467   1.262       .  A
N1457      O1468   1.262       .  A
N1459      O1465   1.262       .  A
C1469      C1470   1.403       .  A
C1469      C1474   1.403       .  A
C1469      H1479   1.084       .  S
C1470      C1475   1.487       .  S
C1470      C1471   1.409       .  A
C1471      C1472   1.401       .  A
C1471      N1476   1.433       .  S
C1472      C1473   1.408       .  A
C1472      H1477   1.083       .  S
C1473      C1474   1.416       .  A
C1474      N1478   1.430       .  S
C1475      C1480   1.410       .  A
C1475      C1484   1.403       .  A
N1476      O1491   1.262       .  A
N1476      O1492   1.262       .  A
N1478      O1489   1.262       .  A
N1478      O1490   1.261       .  A
C1480      C1481   1.401       .  A
C1480      N1485   1.433       .  S
C1481      C1482   1.408       .  A
C1481      H1486   1.083       .  S
C1482      C1483   1.417       .  A
C1483      C1484   1.402       .  A
C1483      N1487   1.429       .  S
C1484      H1488   1.084       .  S
N1485      O1495   1.262       .  A
N1485      O1496   1.262       .  A
N1487      O1493   1.262       .  A
N1487      O1494   1.262       .  A
C1497      C1498   1.404       .  A
C1497      C1502   1.400       .  A
C1497      H1507   1.084       .  S
C1498      C1503   1.487   1_655  S
C1498      C1499   1.410       .  A
C1499      C1500   1.402       .  A
C1499      N1504   1.430   1_655  S
C1500      C1501   1.405       .  A
C1500      H1505   1.084       .  S
C1501      C1502   1.410       .  A
C1502      N1506   1.432       .  S
C1503      C1508   1.409       .  A
C1503      C1512   1.405       .  A
N1504      O1519   1.262       .  A
N1504      O1520   1.262       .  A
N1506      O1517   1.262       .  A
N1506      O1518   1.262       .  A
C1508      C1509   1.398       .  A
C1508      N1513   1.434       .  S
C1509      C1510   1.408       .  A
C1509      H1514   1.083       .  S
C1510      C1511   1.416       .  A
C1511      C1512   1.405       .  A
C1511      N1515   1.429       .  S
C1512      H1516   1.084       .  S
N1513      O1523   1.262       .  A
N1513      O1524   1.262       .  A
N1515      O1521   1.262       .  A
N1515      O1522   1.262       .  A
C1525      C1526   1.400       .  A
C1525      C1530   1.403       .  A
C1525      H1535   1.084       .  S
C1526      C1531   1.486       .  S
C1526      C1527   1.411       .  A
C1527      C1528   1.403       .  A
C1527      N1532   1.437       .  S
C1528      C1529   1.413       .  A
C1528      H1533   1.075       .  S
C1529      C1530   1.423       .  A
C1530      N1534   1.432       .  S
C1531      C1536   1.416       .  A
C1531      C1540   1.401       .  A
N1532      O1547   1.263       .  A
N1532      O1548   1.262       .  A
N1534      O1545   1.262       .  A
N1534      O1546   1.262       .  A
C1536      C1537   1.407       .  A
C1536      N1541   1.437       .  S
C1537      C1538   1.403       .  A
C1537      H1542   1.084       .  S
C1538      C1539   1.415       .  A
C1539      C1540   1.400       .  A
C1539      N1543   1.436       .  S
C1540      H1544   1.084       .  S
N1541      O1551   1.262       .  A
N1541      O1552   1.263       .  A
N1543      O1549   1.263       .  A
N1543      O1550   1.263       .  A
C1553      C1554   1.404       .  A
C1553      C1558   1.402       .  A
C1553      H1563   1.084       .  S
C1554      C1555   1.413       .  A
C1555      C1556   1.405       .  A
C1556      C1557   1.408       .  A
C1556      H1561   1.084       .  S
C1557      C1558   1.414       .  A
C1558      N1562   1.429       .  S
C1559      C1564   1.413       .  A
C1559      C1568   1.405       .  A
N1560      O1575   1.262       .  A
N1560      O1576   1.262       .  A
N1562      O1573   1.262       .  A
N1562      O1574   1.261       .  A
C1564      C1565   1.404       .  A
C1565      C1566   1.408       .  A
C1565      H1570   1.083       .  S
C1566      C1567   1.416       .  A
C1567      C1568   1.403       .  A
C1567      N1571   1.430       .  S
C1568      H1572   1.084       .  S
N1569      O1580   1.262       .  A
N1571      O1577   1.262       .  A
N1571      O1578   1.262       .  A
C1581      C1582   1.403       .  A
C1581      C1586   1.403       .  A
C1581      H1591   1.084       .  S
C1582      C1587   1.489       .  S
C1582      C1583   1.411       .  A
C1583      C1584   1.403       .  A
C1583      N1588   1.434       .  S
C1584      C1585   1.409       .  A
C1584      H1589   1.083       .  S
C1585      C1586   1.418       .  A
C1586      N1590   1.429       .  S
C1587      C1592   1.412       .  A
C1587      C1596   1.403       .  A
N1588      O1603   1.262       .  A
N1588      O1604   1.262       .  A
N1590      O1601   1.262       .  A
N1590      O1602   1.262       .  A
C1592      C1593   1.404       .  A
C1592      N1597   1.433       .  S
C1593      C1594   1.404       .  A
C1593      H1598   1.084       .  S
C1594      C1595   1.415       .  A
C1595      C1596   1.401       .  A
C1595      N1599   1.433       .  S
C1596      H1600   1.084       .  S
N1597      O1607   1.262       .  A
N1597      O1608   1.263       .  A
N1599      O1605   1.262       .  A
N1599      O1606   1.262       .  A
C1609      C1610   1.404   1_554  A
C1609      C1614   1.406       .  A
C1610      C1611   1.412       .  A
C1611      C1612   1.404       .  A
C1611      N1616   1.434       .  S
C1612      C1613   1.408   1_556  A
C1612      H1617   1.083       .  S
C1613      C1614   1.420       .  A
C1614      N1618   1.430       .  S
C1615      C1620   1.415       .  A
C1615      C1624   1.404       .  A
N1616      O1631   1.262       .  A
N1616      O1632   1.262       .  A
N1618      O1630   1.262       .  A
C1620      C1621   1.407       .  A
C1620      N1625   1.434       .  S
C1621      C1622   1.404       .  A
C1621      H1626   1.084       .  S
C1622      C1623   1.415       .  A
C1623      C1624   1.400       .  A
C1623      N1627   1.436       .  S
C1624      H1628   1.084       .  S
N1625      O1635   1.262       .  A
N1627      O1633   1.262       .  A
N1627      O1634   1.262       .  A
C1637      C1638   1.406       .  A
C1637      C1642   1.404       .  A
C1637      H1647   1.084       .  S
C1638      C1643   1.494       .  S
C1638      C1639   1.413       .  A
C1639      C1640   1.402   1_556  A
C1639      N1644   1.433   1_556  S
C1640      C1641   1.406       .  A
C1640      H1645   1.084       .  S
C1641      C1642   1.415   1_554  A
C1642      N1646   1.433       .  S
C1643      C1648   1.413       .  A
C1643      C1652   1.404       .  A
N1644      O1659   1.262       .  A
N1644      O1660   1.262   1_554  A
N1646      O1657   1.262       .  A
N1646      O1658   1.262       .  A
C1648      C1649   1.404       .  A
C1648      N1653   1.434       .  S
C1649      C1650   1.407       .  A
C1649      H1654   1.083       .  S
C1650      C1651   1.415       .  A
C1651      C1652   1.401       .  A
C1651      N1655   1.429       .  S
C1652      H1656   1.084       .  S
N1653      O1663   1.262       .  A
N1653      O1664   1.262       .  A
N1655      O1661   1.261       .  A
N1655      O1662   1.262       .  A
C1665      C1666   1.403       .  A
C1665      C1670   1.403       .  A
C1665      H1675   1.084       .  S
C1666      C1671   1.487   1_655  S
C1666      C1667   1.410       .  A
C1667      C1668   1.400       .  A
C1667      N1672   1.432       .  S
C1668      C1669   1.408       .  A
C1668      H1673   1.083       .  S
C1669      C1670   1.417       .  A
C1670      N1674   1.431       .  S
C1671      C1676   1.410       .  A
C1671      C1680   1.404       .  A
N1672      O1687   1.262       .  A
N1672      O1688   1.262       .  A
N1674      O1685   1.262       .  A
N1674      O1686   1.262       .  A
C1676      C1677   1.400       .  A
C1676      N1681   1.430       .  S
C1677      C1678   1.404       .  A
C1677      H1682   1.084       .  S
C1678      C1679   1.415       .  A
C1679      C1680   1.402       .  A
C1679      N1683   1.434       .  S
C1680      H1684   1.084       .  S
N1681      O1691   1.262       .  A
N1681      O1692   1.262       .  A
N1683      O1689   1.262       .  A
N1683      O1690   1.262       .  A
C1693      C1694   1.399       .  A
C1693      C1698   1.402       .  A
C1693      H1703   1.084   1_554  S
C1694      C1699   1.476       .  S
C1694      C1695   1.405       .  A
C1695      C1696   1.400       .  A
C1695      N1700   1.430       .  S
C1696      C1697   1.408       .  A
C1696      H1701   1.084       .  S
C1697      C1698   1.418       .  A
C1698      N1702   1.431   1_554  S
C1699      C1704   1.402       .  A
C1699      C1708   1.395       .  A
N1700      O1715   1.262       .  A
N1700      O1716   1.262       .  A
N1702      O1713   1.262       .  A
N1702      O1714   1.262   1_556  A
C1704      C1705   1.401   1_554  A
C1704      N1709   1.429       .  S
C1705      C1706   1.415       .  A
C1705      H1710   1.076       .  S
C1706      C1707   1.424   1_556  A
C1707      C1708   1.400       .  A
C1707      N1711   1.430       .  S
C1708      H1712   1.084       .  S
N1709      O1719   1.262   1_554  A
N1709      O1720   1.262       .  A
N1711      O1717   1.262   1_554  A
N1711      O1718   1.261       .  A
C1721      C1722   1.400       .  A
C1721      C1726   1.404       .  A
C1721      H1731   1.084       .  S
C1722      C1727   1.474       .  S
C1722      C1723   1.405       .  A
C1723      C1724   1.397       .  A
C1723      N1728   1.430       .  S
C1724      C1725   1.398       .  A
C1724      H1729   1.080       .  S
C1725      C1726   1.418       .  A
C1726      N1730   1.438       .  S
C1727      C1732   1.408       .  A
C1727      C1736   1.401       .  A
N1728      O1743   1.262       .  A
N1728      O1744   1.262       .  A
N1730      O1741   1.263       .  A
N1730      O1742   1.261       .  A
C1732      C1733   1.398       .  A
C1732      N1737   1.437       .  S
C1733      C1734   1.409       .  A
C1733      H1738   1.083       .  S
C1734      C1735   1.415       .  A
C1735      C1736   1.401       .  A
C1735      N1739   1.429       .  S
C1736      H1740   1.084       .  S
N1737      O1747   1.262       .  A
N1737      O1748   1.263       .  A
N1739      O1745   1.262       .  A
N1739      O1746   1.262       .  A
C1749      C1750   1.399       .  A
C1749      C1754   1.397       .  A
C1749      H1759   1.084       .  S
C1750      C1755   1.483       .  S
C1750      C1751   1.408       .  A
C1751      C1752   1.405       .  A
C1751      N1756   1.436       .  S
C1752      C1753   1.415       .  A
C1752      H1757   1.075       .  S
C1753      C1754   1.421       .  A
C1754      N1758   1.431       .  S
C1755      C1760   1.415       .  A
C1755      C1764   1.401       .  A
N1756      O1771   1.262       .  A
N1756      O1772   1.262       .  A
N1758      O1769   1.262       .  A
N1758      O1770   1.262       .  A
C1760      C1761   1.406       .  A
C1760      N1765   1.436       .  S
C1761      C1762   1.402       .  A
C1761      H1766   1.084       .  S
C1762      C1763   1.413       .  A
C1763      C1764   1.399       .  A
C1763      N1767   1.438       .  S
C1764      H1768   1.084       .  S
N1765      O1775   1.262       .  A
N1765      O1776   1.263       .  A
N1767      O1773   1.263       .  A
N1767      O1774   1.263       .  A
C1777      C1778   1.401       .  A
C1777      C1782   1.400       .  A
C1777      H1787   1.084       .  S
C1778      C1783   1.482       .  S
C1778      C1779   1.414       .  A
C1779      C1780   1.404       .  A
C1779      N1784   1.437       .  S
C1780      C1781   1.404       .  A
C1780      H1785   1.084       .  S
C1781      C1782   1.413       .  A
C1782      N1786   1.430       .  S
C1783      C1788   1.408       .  A
C1783      C1792   1.397       .  A
N1784      O1799   1.263       .  A
N1784      O1800   1.262       .  A
N1786      O1797   1.262       .  A
N1786      O1798   1.262       .  A
C1788      C1789   1.402       .  A
C1788      N1793   1.435       .  S
C1789      C1790   1.413       .  A
C1789      H1794   1.076       .  S
C1790      C1791   1.424       .  A
C1791      C1792   1.402       .  A
C1791      N1795   1.432       .  S
C1792      H1796   1.084       .  S
N1793      O1803   1.262       .  A
N1793      O1804   1.262       .  A
N1795      O1801   1.262       .  A
N1795      O1802   1.262       .  A
C1805      C1810   1.406       .  A
C1805      H1815   1.084       .  S
C1806      C1811   1.488       .  S
C1806      C1807   1.411       .  A
C1807      N1812   1.435       .  S
C1808      C1809   1.406       .  A
C1808      H1813   1.084       .  S
C1809      C1810   1.416       .  A
C1810      N1814   1.431       .  S
C1811      C1816   1.410       .  A
C1811      C1820   1.403       .  A
N1812      O1827   1.262       .  A
N1812      O1828   1.263       .  A
N1814      O1825   1.262       .  A
N1814      O1826   1.262       .  A
C1816      C1817   1.404       .  A
C1816      N1821   1.432       .  S
C1817      C1818   1.406       .  A
C1817      H1822   1.083       .  S
C1818      C1819   1.417       .  A
C1819      C1820   1.401       .  A
C1819      N1823   1.434       .  S
C1820      H1824   1.084       .  S
N1821      O1831   1.262       .  A
N1821      O1832   1.262       .  A
N1823      O1829   1.262       .  A
N1823      O1830   1.262       .  A
C1833      C1834   1.403       .  A
C1833      C1838   1.406       .  A
C1833      H1843   1.084       .  S
C1834      C1839   1.487       .  S
C1834      C1835   1.408       .  A
C1835      C1836   1.400       .  A
C1835      N1840   1.431       .  S
C1836      C1837   1.409       .  A
C1836      H1841   1.083       .  S
C1837      C1838   1.418       .  A
C1838      N1842   1.429       .  S
C1839      C1844   1.409       .  A
C1839      C1848   1.404       .  A
N1840      O1855   1.262       .  A
N1840      O1856   1.262       .  A
N1842      O1853   1.262       .  A
N1842      O1854   1.262       .  A
C1844      C1845   1.403       .  A
C1844      N1849   1.432       .  S
C1845      C1846   1.407       .  A
C1845      H1850   1.084       .  S
C1846      C1847   1.412       .  A
C1847      C1848   1.403       .  A
C1847      N1851   1.429       .  S
C1848      H1852   1.084       .  S
N1849      O1859   1.262       .  A
N1849      O1860   1.262       .  A
N1851      O1857   1.262       .  A
N1851      O1858   1.261       .  A
C1861      C1866   1.402       .  A
C1861      H1871   1.084       .  S
C1862      C1867   1.484       .  S
C1862      C1863   1.412       .  A
C1863      N1868   1.436       .  S
C1864      C1865   1.410       .  A
C1864      H1869   1.083       .  S
C1865      C1866   1.416       .  A
C1866      N1870   1.429       .  S
C1867      C1872   1.410       .  A
C1867      C1876   1.397       .  A
N1868      O1883   1.263       .  A
N1868      O1884   1.262       .  A
N1870      O1881   1.262       .  A
N1870      O1882   1.262       .  A
C1872      C1873   1.404       .  A
C1872      N1877   1.437       .  S
C1873      C1874   1.412       .  A
C1873      H1878   1.082       .  S
C1874      C1875   1.421       .  A
C1875      C1876   1.401       .  A
C1875      N1879   1.428       .  S
C1876      H1880   1.084       .  S
N1877      O1887   1.263       .  A
N1879      O1885   1.262       .  A
N1879      O1886   1.262       .  A
C1889      C1890   1.402       .  A
C1889      C1894   1.401       .  A
C1889      H1899   1.084       .  S
C1890      C1895   1.487       .  S
C1890      C1891   1.412       .  A
C1891      C1892   1.402       .  A
C1891      N1896   1.434       .  S
C1892      C1893   1.407       .  A
C1892      H1897   1.083       .  S
C1893      C1894   1.418       .  A
C1894      N1898   1.429       .  S
C1895      C1900   1.410       .  A
C1895      C1904   1.402       .  A
N1896      O1911   1.262       .  A
N1896      O1912   1.262       .  A
N1898      O1909   1.262       .  A
N1898      O1910   1.262       .  A
C1900      C1901   1.402       .  A
C1900      N1905   1.433       .  S
C1901      C1902   1.409       .  A
C1901      H1906   1.083       .  S
C1902      C1903   1.416       .  A
C1903      C1904   1.401       .  A
C1903      N1907   1.427       .  S
C1904      H1908   1.084       .  S
N1905      O1915   1.262       .  A
N1905      O1916   1.262       .  A
N1907      O1913   1.262       .  A
N1907      O1914   1.260       .  A
C1917      C1918   1.402       .  A
C1917      C1922   1.402       .  A
C1917      H1927   1.084       .  S
C1918      C1923   1.481       .  S
C1918      C1919   1.412       .  A
C1919      C1920   1.403       .  A
C1919      N1924   1.435       .  S
C1920      C1921   1.405       .  A
C1920      H1925   1.084       .  S
C1921      C1922   1.410       .  A
C1922      N1926   1.432       .  S
C1923      C1928   1.411       .  A
C1923      C1932   1.399       .  A
N1924      O1939   1.263       .  A
N1924      O1940   1.262       .  A
N1926      O1937   1.262       .  A
N1926      O1938   1.262       .  A
C1928      C1929   1.404       .  A
C1928      N1933   1.433       .  S
C1929      C1930   1.407       .  A
C1929      H1934   1.084       .  S
C1930      C1931   1.417       .  A
C1931      C1932   1.399       .  A
C1931      N1935   1.430       .  S
C1932      H1936   1.084       .  S
N1933      O1943   1.262       .  A
N1933      O1944   1.262       .  A
N1935      O1941   1.262       .  A
N1935      O1942   1.262       .  A
