geometry optimzed in LAMMPS
_audit_creation_date              2020-11-30 
_audit_creation_method            'lammps2cif' 
_symmetry_space_group_name_H-M    'P1' 
_symmetry_Int_Tables_number       1 
_symmetry_cell_setting            triclinic 
loop_ 
_symmetry_equiv_pos_as_xyz 
  x,y,z 
_cell_length_a                    55.00043167 
_cell_length_b                    54.95643585051907 
_cell_length_c                    39.46123286949864 
_cell_angle_alpha                 89.952906216539 
_cell_angle_beta                  90.02525831596503 
_cell_angle_gamma                 89.77954258759767 
loop_ 
_atom_site_label 
_atom_site_type_symbol 
_atom_site_fract_x 
_atom_site_fract_y 
_atom_site_fract_z 
_atom_site_charge 
N1          N  0.48173485  0.21070494  0.30967057    -0.27300
N2          N  0.47340676  0.23199954  0.32028730    -0.35200
C3          C  0.45798685  0.22825852  0.34634245     0.01000
C4          C  0.45636229  0.20342219  0.35236340     0.07100
C5          C  0.47168402  0.19293329  0.32853194    -0.06000
H6          H  0.44851252  0.24256912  0.35981244     0.07700
H7          H  0.47505287  0.17370243  0.32491024     0.08900
Cu8        Cu  0.48266385  0.26519843  0.29770348     0.44200
Cu9        Cu  0.50596254  0.20658265  0.26921686     0.42000
Cu10       Cu  0.51702622  0.26091301  0.21932390     0.43900
N11         N  0.49343224  0.29549589  0.26927205    -0.34700
N12         N  0.50554134  0.29388306  0.24036765    -0.29000
C13         C  0.50993202  0.31650134  0.22863867    -0.05100
C14         C  0.50019704  0.33317284  0.25122903     0.07200
C15         C  0.48990836  0.31920017  0.27668652     0.01000
H16         H  0.51997016  0.32054233  0.20575893     0.08600
H17         H  0.48077368  0.32581745  0.29915542     0.07700
N18         N  0.53012636  0.22644747  0.20623619    -0.36100
N19         N  0.52734768  0.20691444  0.22540836    -0.28300
C20         C  0.53921433  0.18809159  0.21092578    -0.03600
C21         C  0.54962591  0.19592707  0.18073981     0.05000
C22         C  0.54331691  0.22038857  0.17873842     0.03100
H23         H  0.54009921  0.16997703  0.22159472     0.08200
H24         H  0.54791179  0.23291771  0.15860096     0.07100
O25         O  0.47124285  0.48765284  0.21264098    -0.73000
O26         O  0.54513086  0.48499521  0.21545075    -0.73900
O27         O  0.50705739  0.44958542  0.21668067    -0.62600
O28         O  0.50948317  0.52260752  0.21085568    -0.71000
O29         O  0.50890441  0.52504986  0.26694174    -0.70500
O30         O  0.50531744  0.45170301  0.27261801    -0.61800
O31         O  0.54387966  0.48688901  0.27153377    -0.74300
O32         O  0.47057576  0.49015923  0.26872427    -0.73100
Cu33       Cu  0.50825757  0.48608952  0.21196254     1.04600
Cu34       Cu  0.50714657  0.48849441  0.27187418     1.04300
C35         C  0.45931493  0.48945368  0.24040767     0.93200
C36         C  0.55612848  0.48587349  0.24403505     0.92400
C37         C  0.50556591  0.43899847  0.24545408     0.84500
C38         C  0.50976471  0.53536310  0.23789476     0.90800
N39         N  0.78671395  0.51024409  0.20270717    -0.27300
N40         N  0.76605797  0.51369987  0.18616369    -0.35200
C41         C  0.77073862  0.52656796  0.15781671     0.01000
C42         C  0.79545349  0.53167818  0.15660552     0.07100
C43         C  0.80492379  0.52098814  0.18556301    -0.06000
H44         H  0.75703501  0.53246887  0.13989946     0.07700
H45         H  0.82357806  0.52170744  0.19419980     0.08900
Cu46       Cu  0.73202892  0.50299751  0.20498147     0.44200
Cu47       Cu  0.78920394  0.49260555  0.24916553     0.42000
Cu48       Cu  0.73221400  0.48082033  0.29183315     0.43900
N49         N  0.70036590  0.49393703  0.23183726    -0.34700
N50         N  0.70051150  0.48642437  0.26373097    -0.29000
C51         C  0.67741465  0.48287999  0.27401845    -0.05100
C52         C  0.66193590  0.48832165  0.24737115     0.07200
C53         C  0.67710740  0.49524602  0.22103471     0.01000
H54         H  0.67225252  0.47675243  0.29905175     0.08600
H55         H  0.67159608  0.50107401  0.19598317     0.07700
N56         N  0.76619626  0.47335978  0.31305669    -0.36100
N57         N  0.78695568  0.47682378  0.29690460    -0.28300
C58         C  0.80532606  0.46805691  0.31595447    -0.03600
C59         C  0.79575226  0.45869720  0.34568216     0.05000
C60         C  0.77088285  0.46257312  0.34301274     0.03100
H61         H  0.82419409  0.46776428  0.30821906     0.08200
H62         H  0.75709820  0.45710390  0.36099129     0.07100
N63         N  0.46884221  0.76141380  0.20945759    -0.27300
N64         N  0.46939706  0.74329996  0.18739380    -0.35200
C65         C  0.45759054  0.75020989  0.15910119     0.01000
C66         C  0.44890784  0.77370495  0.16347652     0.07100
C67         C  0.45639543  0.78020876  0.19579961    -0.06000
H68         H  0.45546020  0.73891733  0.13685996     0.07700
H69         H  0.45315192  0.79738315  0.20841915     0.08900
Cu70       Cu  0.48584463  0.70964446  0.19636475     0.44200
Cu71       Cu  0.48714758  0.76054315  0.25578606     0.42000
Cu72       Cu  0.52997418  0.71031697  0.26240383     0.43900
N73         N  0.50358863  0.67828836  0.21319761    -0.34700
N74         N  0.52034941  0.67885264  0.23719119    -0.29000
C75         C  0.52708404  0.65597595  0.24498329    -0.05100
C76         C  0.51397615  0.64020121  0.22488890     0.07200
C77         C  0.49916528  0.65490182  0.20508137     0.01000
H78         H  0.53948874  0.65113526  0.26519855     0.08600
H79         H  0.48536536  0.64899071  0.18739903     0.07700
N80         N  0.53107050  0.74091104  0.29276648    -0.36100
N81         N  0.51420054  0.75809582  0.29271596    -0.28300
C82         C  0.51935778  0.77418865  0.31736813    -0.03600
C83         C  0.54082336  0.76709823  0.33320292     0.05000
C84         C  0.54768850  0.74593882  0.31669153     0.03100
H85         H  0.50852896  0.79017380  0.32286092     0.08200
H86         H  0.56373931  0.73502749  0.32144995     0.07100
N87         N  0.22694645  0.48061040  0.21126166    -0.27300
N88         N  0.24678943  0.47659738  0.19321072    -0.35200
C89         C  0.24057409  0.46470202  0.16470860     0.01000
C90         C  0.21565225  0.46079767  0.16498511     0.07100
C91         C  0.20765644  0.47116977  0.19496797    -0.06000
H92         H  0.25334408  0.45875433  0.14555569     0.07700
H93         H  0.18926392  0.47131764  0.20467262     0.08900
Cu94       Cu  0.28159308  0.48570105  0.20999538     0.44200
Cu95       Cu  0.22726994  0.49840609  0.25747104     0.42000
Cu96       Cu  0.28590030  0.51521712  0.29293828     0.43900
N97         N  0.31448122  0.49371716  0.23393298    -0.34700
N98         N  0.31622490  0.50402870  0.26417481    -0.29000
C99         C  0.34000285  0.50586785  0.27235771    -0.05100
C100        C  0.35379978  0.49637595  0.24601943     0.07200
C101        C  0.33699498  0.48886098  0.22216072     0.01000
H102        H  0.34678404  0.51354324  0.29574279     0.08600
H103        H  0.34085952  0.48027567  0.19808849     0.07700
N104        N  0.25228151  0.52454461  0.31507858    -0.36100
N105        N  0.23115568  0.51809253  0.30183677    -0.28300
C106        C  0.21297873  0.52695535  0.32102734    -0.03600
C107        C  0.22292294  0.53964188  0.34782824     0.05000
C108        C  0.24792621  0.53780541  0.34326436     0.03100
H109        H  0.19384812  0.52465849  0.31554634     0.08200
H110        H  0.26186959  0.54569596  0.35912063     0.07100
N111        N  0.46723836  0.75387045  0.79129808    -0.27300
N112        N  0.45259015  0.73500714  0.79464076    -0.35200
C113        C  0.43574842  0.74028089  0.81839392     0.01000
C114        C  0.44031671  0.76331791  0.83166068     0.07100
C115        C  0.46069540  0.77109942  0.81381910    -0.06000
H116        H  0.42109675  0.72818940  0.82525500     0.07700
H117        H  0.47013606  0.78818019  0.81678143     0.08900
Cu118      Cu  0.45777989  0.70205088  0.76875277     0.44200
Cu119      Cu  0.49335745  0.75689426  0.75297141     0.42000
Cu120      Cu  0.49875281  0.70524423  0.69722744     0.43900
N121        N  0.47090686  0.67129336  0.74299860    -0.34700
N122        N  0.48576221  0.67275330  0.71671778    -0.29000
C123        C  0.49230304  0.65019266  0.70702464    -0.05100
C124        C  0.48109606  0.63359340  0.72814016     0.07200
C125        C  0.46767804  0.64759502  0.75072022     0.01000
H126        H  0.50496961  0.64618231  0.68679858     0.08600
H127        H  0.45691779  0.64103637  0.77174900     0.07700
N128        N  0.51368483  0.73893980  0.68633854    -0.36100
N129        N  0.51267577  0.75767520  0.70729379    -0.28300
C130        C  0.52467182  0.77649274  0.69322300    -0.03600
C131        C  0.53355163  0.76927232  0.66185114     0.05000
C132        C  0.52613226  0.74534923  0.65839622     0.03100
H133        H  0.52662776  0.79420362  0.70483207     0.08200
H134        H  0.52946364  0.73346586  0.63703781     0.07100
O135        O  0.50577617  0.44340372  0.70575203    -0.73000
O136        O  0.49874628  0.51651802  0.70117948    -0.73900
O137        O  0.53787597  0.48365048  0.71169236    -0.62600
O138        O  0.46613029  0.47646393  0.69486577    -0.71000
O139        O  0.45986623  0.47721662  0.75045908    -0.70500
O140        O  0.53135605  0.48525359  0.76716751    -0.61800
O141        O  0.49148439  0.51730039  0.75633976    -0.74300
O142        O  0.49982305  0.44475705  0.76128761    -0.73100
Cu143      Cu  0.50235596  0.47989388  0.70140652     1.04600
Cu144      Cu  0.49538463  0.48109206  0.76069839     1.04300
C145        C  0.50417826  0.43258661  0.73437815     0.93200
C146        C  0.49401979  0.52849984  0.72817724     0.92400
C147        C  0.54585907  0.48595222  0.74192566     0.84500
C148        C  0.45167170  0.47619012  0.72020097     0.90800
N149        N  0.23103042  0.46852595  0.79243624    -0.27300
N150        N  0.24888526  0.45233522  0.79260514    -0.35200
C151        C  0.24392210  0.43518674  0.81606331     0.01000
C152        C  0.22212026  0.44108869  0.83197197     0.07100
C153        C  0.21471728  0.46248502  0.81633423    -0.06000
H154        H  0.25536153  0.41954289  0.82107568     0.07700
H155        H  0.19848860  0.47293895  0.82180471     0.08900
Cu156      Cu  0.28000131  0.45550207  0.76246778     0.44200
Cu157      Cu  0.22790942  0.49709603  0.75791489     0.42000
Cu158      Cu  0.27693099  0.50324873  0.69891778     0.43900
N159        N  0.30955775  0.46612301  0.73264031    -0.34700
N160        N  0.30812160  0.48325092  0.70913853    -0.29000
C161        C  0.33044188  0.48748951  0.69659390    -0.05100
C162        C  0.34687463  0.47254181  0.71318104     0.07200
C163        C  0.33298490  0.45918384  0.73579680     0.01000
H164        H  0.33462968  0.50157097  0.67835258     0.08600
H165        H  0.33965251  0.44649305  0.75463468     0.07700
N166        N  0.24498140  0.52322758  0.69533367    -0.36100
N167        N  0.22678914  0.52110109  0.71700188    -0.28300
C168        C  0.20794749  0.53472256  0.70593973    -0.03600
C169        C  0.21479833  0.54611288  0.67609257     0.05000
C170        C  0.23833637  0.53834756  0.67013934     0.03100
H171        H  0.19014655  0.53514687  0.71758003     0.08200
H172        H  0.24925250  0.54216674  0.64797808     0.07100
N173        N  0.52297352  0.20823744  0.80562056    -0.27300
N174        N  0.53860553  0.22641364  0.80743107    -0.35200
C175        C  0.55537657  0.22123779  0.83123137     0.01000
C176        C  0.54977874  0.19906688  0.84618682     0.07100
C177        C  0.52889852  0.19156000  0.82928469    -0.06000
H178        H  0.57063715  0.23285142  0.83704384     0.07700
H179        H  0.51871582  0.17507017  0.83366980     0.08900
Cu180      Cu  0.53522953  0.25882584  0.78038328     0.44200
Cu181      Cu  0.49612123  0.20527563  0.76819572     0.42000
Cu182      Cu  0.49262921  0.25704807  0.71227715     0.43900
N183        N  0.52358642  0.28992886  0.75477064    -0.34700
N184        N  0.50778037  0.28900513  0.72957301    -0.29000
C185        C  0.50206814  0.31174551  0.71977980    -0.05100
C186        C  0.51493044  0.32780545  0.73972444     0.07200
C187        C  0.52839511  0.31343568  0.76171225     0.01000
H188        H  0.48887820  0.31626268  0.70040195     0.08600
H189        H  0.54006105  0.31961430  0.78200969     0.07700
N190        N  0.47551752  0.22445205  0.70251937    -0.36100
N191        N  0.47574110  0.20559037  0.72332914    -0.28300
C192        C  0.46206699  0.18776565  0.70967747    -0.03600
C193        C  0.45293877  0.19591062  0.67881424     0.05000
C194        C  0.46199177  0.21918030  0.67518533     0.03100
H195        H  0.45909190  0.17016780  0.72122481     0.08200
H196        H  0.45896636  0.23144808  0.65413026     0.07100
N197        N  0.77185464  0.52892803  0.78843487    -0.27300
N198        N  0.75156094  0.54130891  0.79339365    -0.35200
C199        C  0.75570959  0.55893035  0.81632990     0.01000
C200        C  0.77958157  0.55703543  0.82773462     0.07100
C201        C  0.78909525  0.53759751  0.80934071    -0.06000
H202        H  0.74203389  0.57179438  0.82453689     0.07700
H203        H  0.80709288  0.52978533  0.81159246     0.08900
Cu204      Cu  0.71820020  0.53001335  0.77435084     0.44200
Cu205      Cu  0.77498249  0.50114572  0.75270328     0.42000
Cu206      Cu  0.71978435  0.47086592  0.73077549     0.43900
N207        N  0.68751396  0.51004578  0.76122460    -0.34700
N208        N  0.68828865  0.48857661  0.74605404    -0.29000
C209        C  0.66549385  0.48050348  0.74158354    -0.05100
C210        C  0.64958168  0.49752333  0.75477083     0.07200
C211        C  0.66411439  0.51604373  0.76704541     0.01000
H212        H  0.66082027  0.46354526  0.72933663     0.08600
H213        H  0.65813793  0.53262045  0.77930176     0.07700
N214        N  0.75321718  0.46085983  0.71091764    -0.36100
N215        N  0.77308073  0.47364026  0.71643349    -0.28300
C216        C  0.79072442  0.46554537  0.69568410    -0.03600
C217        C  0.78190856  0.44608829  0.67682835     0.05000
C218        C  0.75800031  0.44359288  0.68766120     0.03100
H219        H  0.80856538  0.47364698  0.69400236     0.08200
H220        H  0.74479833  0.43047729  0.67900462     0.07100
N221        N  0.01280122  0.72031711  0.70013221    -0.27300
N222        N  0.01638939  0.73988014  0.68124327    -0.35200
C223        C  0.03031174  0.73387610  0.65449359     0.01000
C224        C  0.03579444  0.70934841  0.65648349     0.07100
C225        C  0.02436153  0.70128276  0.68569886    -0.06000
H226        H  0.03601833  0.74645440  0.63497508     0.07700
H227        H  0.02453826  0.68296738  0.69576820     0.08900
Cu228      Cu  0.00202387  0.77395181  0.69206747     0.44200
Cu229      Cu  0.99173893  0.72065924  0.74427800     0.42000
Cu230      Cu  0.95441050  0.77492223  0.75453022     0.43900
N231        N  0.98477627  0.80563408  0.70774304    -0.34700
N232        N  0.96684625  0.80588473  0.73005138    -0.29000
C233        C  0.96077674  0.82910506  0.73687554    -0.05100
C234        C  0.97559780  0.84414774  0.71796050     0.07200
C235        C  0.99063139  0.82870189  0.69981215     0.01000
H236        H  0.94760720  0.83464392  0.75573624     0.08600
H237        H  0.00549443  0.83385784  0.68339027     0.07700
N238        N  0.95096843  0.74403103  0.78433996    -0.36100
N239        N  0.96600233  0.72525066  0.78280790    -0.28300
C240        C  0.96044985  0.70968201  0.80798059    -0.03600
C241        C  0.94047891  0.71867988  0.82570758     0.05000
C242        C  0.93501136  0.74050147  0.80968570     0.03100
H243        H  0.97013427  0.69286444  0.81277197     0.08200
H244        H  0.92037753  0.75293982  0.81577267     0.07100
O245        O  0.95149856  0.99860743  0.76321279    -0.73000
O246        O  0.02408763  0.99069033  0.76594264    -0.73900
O247        O  0.99118851  0.03118061  0.76777406    -0.62600
O248        O  0.98413703  0.95842710  0.76107740    -0.71000
O249        O  0.98512376  0.96129115  0.70497134    -0.70500
O250        O  0.99382808  0.03366554  0.71234537    -0.61800
O251        O  0.02550929  0.99306090  0.70991770    -0.74300
O252        O  0.95300615  0.00175539  0.70724132    -0.73100
Cu253      Cu  0.98769074  0.99466571  0.76645468     1.04600
Cu254      Cu  0.98938072  0.99756532  0.70669502     1.04300
C255        C  0.94075668  0.00127294  0.73475217     0.93200
C256        C  0.03627054  0.99040556  0.73836949     0.92400
C257        C  0.99383637  0.04416942  0.74118459     0.84500
C258        C  0.98349966  0.94843571  0.73185693     0.90800
N259        N  0.26560168  0.01052981  0.71453514    -0.27300
N260        N  0.24546955  0.01512130  0.69732876    -0.35200
C261        C  0.25087151  0.02868147  0.66998790     0.01000
C262        C  0.27562375  0.03309628  0.66984183     0.07100
C263        C  0.28441778  0.02124139  0.69849485    -0.06000
H264        H  0.23770886  0.03485369  0.65146752     0.07700
H265        H  0.30310594  0.02046858  0.70700369     0.08900
Cu266      Cu  0.21145802  0.00258386  0.71148649     0.44200
Cu267      Cu  0.26583054  0.98864422  0.75806932     0.42000
Cu268      Cu  0.20984846  0.95391441  0.77257677     0.43900
N269        N  0.17948803  0.98717687  0.72896719    -0.34700
N270        N  0.17880574  0.96894382  0.75083992    -0.29000
C271        C  0.15542995  0.96366365  0.75772472    -0.05100
C272        C  0.14084127  0.97932897  0.73921630     0.07200
C273        C  0.15662445  0.99400679  0.72134627     0.01000
H274        H  0.14951763  0.94993257  0.77553308     0.08600
H275        H  0.15185422  0.00885231  0.70456320     0.07700
N276        N  0.24244283  0.94743459  0.79775582    -0.36100
N277        N  0.26180410  0.96148525  0.79494153    -0.28300
C278        C  0.27881295  0.95363455  0.81694050    -0.03600
C279        C  0.27022689  0.93311929  0.83369877     0.05000
C280        C  0.24702264  0.92981798  0.82066198     0.03100
H281        H  0.29643326  0.96202017  0.81998446     0.08200
H282        H  0.23441962  0.91544557  0.82689421     0.07100
N283        N  0.97261155  0.27344173  0.72786592    -0.27300
N284        N  0.95976298  0.25369293  0.72195339    -0.35200
C285        C  0.94314815  0.25867145  0.69786079     0.01000
C286        C  0.94636510  0.28248611  0.68672364     0.07100
C287        C  0.96541493  0.29110867  0.70648380    -0.06000
H288        H  0.93022566  0.24553901  0.68848080     0.07700
H289        H  0.97406533  0.30869604  0.70477432     0.08900
Cu290      Cu  0.97020964  0.21985606  0.74071293     0.44200
Cu291      Cu  0.99911556  0.27493953  0.76514193     0.42000
Cu292      Cu  0.02993601  0.21882406  0.78362637     0.43900
N293        N  0.99044602  0.18851180  0.75051567    -0.34700
N294        N  0.01241577  0.18813624  0.76425776    -0.29000
C295        C  0.02050488  0.16495712  0.76507634    -0.05100
C296        C  0.00272597  0.14999835  0.75150392     0.07200
C297        C  0.98399676  0.16563876  0.74255667     0.01000
H298        H  0.03793014  0.15937980  0.77522925     0.08600
H299        H  0.96680403  0.16070564  0.73119000     0.07700
N300        N  0.03882676  0.25182023  0.80667842    -0.36100
N301        N  0.02571684  0.27171531  0.80210352    -0.28300
C302        C  0.03349286  0.28905908  0.82344082    -0.03600
C303        C  0.05323292  0.28019033  0.84167650     0.05000
C304        C  0.05607541  0.25641498  0.83006233     0.03100
H305        H  0.02520138  0.30686252  0.82552051     0.08200
H306        H  0.06965309  0.24331704  0.83795646     0.11900
N307        N  0.71534262  0.96367336  0.70671269    -0.27300
N308        N  0.73451344  0.96331364  0.68646633    -0.35200
C309        C  0.72905330  0.95070910  0.65827907     0.01000
C310        C  0.70531958  0.94267231  0.66079379     0.07100
C311        C  0.69715735  0.95125797  0.69181119    -0.06000
H312        H  0.74145715  0.94763557  0.63743171     0.07700
H313        H  0.67930692  0.94867335  0.70271026     0.08900
Cu314      Cu  0.76740290  0.97989232  0.69765093     0.44200
Cu315      Cu  0.71458224  0.98209857  0.75299815     0.42000
Cu316      Cu  0.76562048  0.02333455  0.76479627     0.43900
N317        N  0.79812667  0.99769504  0.71521278    -0.34700
N318        N  0.79739751  0.01406708  0.73971053    -0.29000
C319        C  0.82023723  0.02074537  0.74752338    -0.05100
C320        C  0.83602854  0.00800967  0.72680470     0.07200
C321        C  0.82145654  0.99350180  0.70672703     0.01000
H322        H  0.82504650  0.03286766  0.76802550     0.08600
H323        H  0.82742700  0.98001850  0.68855471     0.07700
N324        N  0.73442349  0.02383707  0.79414771    -0.36100
N325        N  0.71704574  0.00735247  0.79236068    -0.28300
C326        C  0.70107828  0.01140629  0.81762897    -0.03600
C327        C  0.70836718  0.03187019  0.83565552     0.05000
C328        C  0.72952466  0.03924749  0.81966181     0.03100
H329        H  0.68521225  0.00034031  0.82228795     0.08200
H330        H  0.74064826  0.05477467  0.82599854     0.07100
N331        N  0.02251930  0.28041549  0.21393947    -0.27300
N332        N  0.02530042  0.26041804  0.19577472    -0.35200
C333        C  0.03694426  0.26614563  0.16681170     0.01000
C334        C  0.04218617  0.29088992  0.16703906     0.07100
C335        C  0.03275467  0.29921053  0.19748264    -0.06000
H336        H  0.04175820  0.25312983  0.14736980     0.07700
H337        H  0.03371301  0.31753525  0.20736553     0.08900
Cu338      Cu  0.01562252  0.22602435  0.21391806     0.44200
Cu339      Cu  0.00495654  0.28119784  0.26038282     0.42000
Cu340      Cu  0.99488804  0.22396775  0.30263362     0.43900
N341        N  0.00952387  0.19392030  0.24110091    -0.34700
N342        N  0.00333735  0.19318146  0.27350653    -0.29000
C343        C  0.00171707  0.16972443  0.28322482    -0.05100
C344        C  0.00667990  0.15485470  0.25559761     0.07200
C345        C  0.01155639  0.17096799  0.22937982     0.01000
H346        H  0.99670260  0.16389701  0.30845413     0.08600
H347        H  0.01579912  0.16635180  0.20339911     0.07700
N348        N  0.98380515  0.25753965  0.32265827    -0.36100
N349        N  0.98672908  0.27825696  0.30615656    -0.28300
C350        C  0.97615669  0.29637487  0.32373719    -0.03600
C351        C  0.96632306  0.28687636  0.35320913     0.05000
C352        C  0.97162371  0.26211855  0.35164840     0.03100
H353        H  0.97540677  0.31511671  0.31538586     0.08200
H354        H  0.96672532  0.24838497  0.37004304     0.07100
O355        O  0.00133127  0.03791532  0.28128767    -0.73000
O356        O  0.00285424  0.96392395  0.28445573    -0.73900
O357        O  0.03852134  0.00142003  0.28089222    -0.62600
O358        O  0.96519549  0.00021207  0.28603580    -0.71000
O359        O  0.96283409  0.00216096  0.23044987    -0.70500
O360        O  0.03654438  0.99819582  0.22496946    -0.61800
O361        O  0.99775300  0.96334102  0.22920126    -0.74300
O362        O  0.00142884  0.03668950  0.22513271    -0.73100
Cu363      Cu  0.00199855  0.00094459  0.28510499     1.04600
Cu364      Cu  0.99955583  0.00002788  0.22552735     1.04300
C365        C  0.00173803  0.04891180  0.25263298     0.93200
C366        C  0.00031616  0.95174047  0.25705683     0.92400
C367        C  0.04913815  0.99969789  0.25220864     0.84500
C368        C  0.95217516  0.00129077  0.25924011     0.90800
N369        N  0.72911586  0.94418532  0.29018716    -0.27300
N370        N  0.74741678  0.94482440  0.31192801    -0.35200
C371        C  0.74115313  0.93231433  0.33996024     0.01000
C372        C  0.71783013  0.92329275  0.33565517     0.07100
C373        C  0.71091210  0.93105605  0.30364748    -0.06000
H374        H  0.75237488  0.93070263  0.36238002     0.07700
H375        H  0.69345964  0.92831220  0.29161654     0.08900
Cu376      Cu  0.77954491  0.96388605  0.30296757     0.44200
Cu377      Cu  0.72765877  0.96465982  0.24584602     0.42000
Cu378      Cu  0.77338508  0.01128547  0.23999430     0.43900
N379        N  0.80894293  0.98390356  0.28463572    -0.34700
N380        N  0.80658575  0.00137561  0.26176227    -0.29000
C381        C  0.82884818  0.00938565  0.25303396    -0.05100
C382        C  0.84608456  0.99640393  0.27128147     0.07200
C383        C  0.83278744  0.98043028  0.29111694     0.01000
H384        H  0.83230439  0.02304972  0.23390086     0.08600
H385        H  0.83997677  0.96667122  0.30803320     0.07700
N386        N  0.74110275  0.01184522  0.21222208    -0.36100
N387        N  0.72581327  0.99338314  0.21155804    -0.28300
C388        C  0.70876118  0.99762918  0.18774812    -0.03600
C389        C  0.71303061  0.02023512  0.17312478     0.05000
C390        C  0.73364113  0.02870512  0.18973200     0.03100
H391        H  0.69447381  0.98497021  0.18141717     0.08200
H392        H  0.74285157  0.04577684  0.18540269     0.07100
N393        N  0.97822207  0.72010576  0.21071259    -0.27300
N394        N  0.97102063  0.74109921  0.19762754    -0.35200
C395        C  0.95677759  0.73655043  0.17050279     0.01000
C396        C  0.95469912  0.71149522  0.16638421     0.07100
C397        C  0.96846480  0.70177804  0.19264069    -0.06000
H398        H  0.94879776  0.75047942  0.15457176     0.07700
H399        H  0.97140298  0.68269290  0.19805266     0.08900
Cu400      Cu  0.98120185  0.77500160  0.21773925     0.44200
Cu401      Cu  0.00226721  0.71719773  0.25147095     0.42000
Cu402      Cu  0.02465976  0.77363554  0.28765045     0.43900
N403        N  0.99413878  0.80628586  0.24247898    -0.34700
N404        N  0.01028273  0.80576556  0.26736757    -0.29000
C405        C  0.01528138  0.82878784  0.27690621    -0.05100
C406        C  0.00155325  0.84470070  0.25732275     0.07200
C407        C  0.98834902  0.82968704  0.23584042     0.01000
H408        H  0.02820127  0.83361990  0.29643056     0.08600
H409        H  0.97565299  0.83543463  0.21644758     0.07700
N410        N  0.03487075  0.73916976  0.30513987    -0.36100
N411        N  0.02676269  0.71864960  0.29183356    -0.28300
C412        C  0.03631633  0.69974420  0.30911843    -0.03600
C413        C  0.05106555  0.70870040  0.33469138     0.05000
C414        C  0.04969034  0.73379660  0.33134919     0.03100
H415        H  0.03258454  0.68082532  0.30371908     0.08200
H416        H  0.05849333  0.74718043  0.34721101     0.07100
N417        N  0.27902474  0.97509608  0.20293086    -0.27300
N418        N  0.25877891  0.97520308  0.18478713    -0.35200
C419        C  0.26289106  0.96340933  0.15540368     0.01000
C420        C  0.28669311  0.95487686  0.15516038     0.07100
C421        C  0.29630146  0.96276683  0.18577931    -0.06000
H422        H  0.24923854  0.96055276  0.13609301     0.07700
H423        H  0.31437151  0.95912716  0.19540930     0.08900
Cu424      Cu  0.22524310  0.98781957  0.20267389     0.44200
Cu425      Cu  0.28234929  0.99110652  0.25084577     0.42000
Cu426      Cu  0.22556002  0.00810012  0.28976342     0.43900
N427        N  0.19356972  0.99551938  0.23000601    -0.34700
N428        N  0.19382739  0.00198467  0.26227195    -0.29000
C429        C  0.17077833  0.00420456  0.27334084    -0.05100
C430        C  0.15507641  0.99915035  0.24677409     0.07200
C431        C  0.17026600  0.99371875  0.21966087     0.01000
H432        H  0.16579536  0.00906911  0.29898009     0.08600
H433        H  0.16476729  0.98869267  0.19429827     0.07700
N434        N  0.25927810  0.01540870  0.31145243    -0.36100
N435        N  0.28024597  0.00930464  0.29735245    -0.28300
C436        C  0.29851533  0.01817837  0.31651328    -0.03600
C437        C  0.28851745  0.03049051  0.34388520     0.05000
C438        C  0.26362247  0.02829017  0.33980069     0.03100
H439        H  0.31760826  0.01671897  0.31022647     0.08200
H440        H  0.24966728  0.03632387  0.35559046     0.07100
N441        N  0.12852960  0.37669630  0.05599036    -0.36600
N442        N  0.16068391  0.39590313  0.00364223    -0.57200
N443        N  0.13729703  0.36499462  0.95449160    -0.36600
N444        N  0.10602783  0.34496104  0.00609604    -0.57200
C445        C  0.14530577  0.38824828  0.07521721     0.27000
C446        C  0.11624252  0.36126507  0.07653401     0.27000
C447        C  0.15703891  0.37248195  0.93696992     0.27000
C448        C  0.12829275  0.34528169  0.93834287     0.27000
C449        C  0.16585680  0.41142208  0.02915687     0.35600
C450        C  0.16927585  0.40615641  0.97488783     0.35600
C451        C  0.09078070  0.34136497  0.03244126     0.35600
C452        C  0.09483058  0.33599901  0.97829162     0.35600
C453        C  0.14323528  0.38047887  0.10855667    -0.21900
C454        C  0.12493400  0.36345796  0.10937113    -0.21900
C455        C  0.16083892  0.35715629  0.90956112    -0.21900
C456        C  0.14267731  0.33995315  0.91044072    -0.21900
C457        C  0.17805135  0.43154285  0.01664510    -0.23000
C458        C  0.17984560  0.42840702  0.98215497    -0.23000
C459        C  0.06983128  0.32988206  0.02140840    -0.23000
C460        C  0.07224140  0.32679519  0.98699501    -0.23000
C461        C  0.16142764  0.40662168  0.06382097    -0.18300
C462        C  0.09667297  0.34608880  0.06667666    -0.18300
C463        C  0.10586252  0.33396271  0.94598892    -0.18300
C464        C  0.16972425  0.39444583  0.94293129    -0.18300
H465        H  0.15368048  0.38655473  0.13017723     0.14600
H466        H  0.11863835  0.35392229  0.13169208     0.14600
H467        H  0.17473544  0.35874447  0.89028263     0.14600
H468        H  0.13984658  0.32569326  0.89196934     0.14600
H469        H  0.18506454  0.44680556  0.03087875     0.12900
H470        H  0.18865987  0.44069872  0.96464111     0.12900
H471        H  0.05454946  0.32406185  0.03661600     0.12900
H472        H  0.05920900  0.31803968  0.97051590     0.12900
H473        H  0.12415384  0.38083307  0.03102634     0.26100
H474        H  0.12832624  0.37498162  0.97308151     0.26100
N475        N  0.63073114  0.10902577  0.06362867    -0.36600
N476        N  0.60764520  0.14100138  0.01426724    -0.57200
N477        N  0.63236454  0.11478830  0.96082148    -0.36600
N478        N  0.65597666  0.08357724  0.00957314    -0.57200
C479        C  0.62165692  0.12657436  0.08417053     0.27000
C480        C  0.64770111  0.09649862  0.08149524     0.27000
C481        C  0.62416205  0.13463615  0.94404030     0.27000
C482        C  0.64995056  0.10450287  0.94158072     0.27000
C483        C  0.59466520  0.14699244  0.04216065     0.35600
C484        C  0.59494138  0.14928397  0.98719928     0.35600
C485        C  0.66090774  0.06843687  0.03566335     0.35600
C486        C  0.66123989  0.07123355  0.98088870     0.35600
C487        C  0.63280693  0.12503241  0.11562686    -0.21900
C488        C  0.64935616  0.10617026  0.11387080    -0.21900
C489        C  0.63691973  0.13723305  0.91394637    -0.21900
C490        C  0.65324330  0.11817882  0.91239961    -0.21900
C491        C  0.57377678  0.15950161  0.03283277    -0.23000
C492        C  0.57379099  0.16067936  0.99798031    -0.23000
C493        C  0.66940053  0.04631392  0.02353692    -0.23000
C494        C  0.66952284  0.04805602  0.98874795    -0.23000
C495        C  0.60230316  0.14264412  0.07592494    -0.18300
C496        C  0.66017366  0.07535424  0.07015027    -0.18300
C497        C  0.66098618  0.08168711  0.94814196    -0.18300
C498        C  0.60334035  0.14829890  0.95324755    -0.18300
H499        H  0.62918667  0.13613418  0.13770669     0.14600
H500        H  0.66087889  0.09992276  0.13437085     0.14600
H501        H  0.63408797  0.15089673  0.89455796     0.14600
H502        H  0.66549881  0.11432305  0.89161720     0.14600
H503        H  0.56000544  0.16704411  0.04939633     0.12900
H504        H  0.56009141  0.16942477  0.98244438     0.12900
H505        H  0.67538508  0.03077644  0.03824991     0.12900
H506        H  0.67566675  0.03414808  0.97130449     0.12900
H507        H  0.62364418  0.10404527  0.04023484     0.26100
H508        H  0.62383844  0.10665933  0.98143293     0.26100
N509        N  0.87412134  0.62560114  0.04862570    -0.36600
N510        N  0.84206989  0.60474189  0.99713169    -0.57200
N511        N  0.86114586  0.63887554  0.94832026    -0.36600
N512        N  0.89178369  0.66116007  0.99926558    -0.57200
C513        C  0.86009961  0.61101892  0.06822181     0.27000
C514        C  0.88587358  0.64124910  0.06950508     0.27000
C515        C  0.84182571  0.63007087  0.93105447     0.27000
C516        C  0.86875827  0.65907853  0.93193657     0.27000
C517        C  0.83864413  0.58830878  0.02217523     0.35600
C518        C  0.83242558  0.59505635  0.96862756     0.35600
C519        C  0.90694904  0.66607714  0.02535356     0.35600
C520        C  0.90185372  0.67106550  0.97117356     0.35600
C521        C  0.86363927  0.61696105  0.10202018    -0.21900
C522        C  0.87981493  0.63597978  0.10282391    -0.21900
C523        C  0.83681151  0.64513741  0.90368784    -0.21900
C524        C  0.85387028  0.66343003  0.90419791    -0.21900
C525        C  0.82640093  0.56822812  0.00963633    -0.23000
C526        C  0.82278706  0.57233629  0.97563600    -0.23000
C527        C  0.92646996  0.67968090  0.01392140    -0.23000
C528        C  0.92353363  0.68236227  0.97950174    -0.23000
C529        C  0.84471463  0.59200327  0.05668089    -0.18300
C530        C  0.90280458  0.65940538  0.05957610    -0.18300
C531        C  0.89076079  0.67145611  0.93871219    -0.18300
C532        C  0.83063412  0.60729112  0.93706341    -0.18300
H533        H  0.85545454  0.60846971  0.12395636     0.14600
H534        H  0.88645600  0.64480127  0.12549949     0.14600
H535        H  0.82292650  0.64263924  0.88457219     0.14600
H536        H  0.85573629  0.67774780  0.88553755     0.14600
H537        H  0.82057006  0.55230732  0.02353841     0.12900
H538        H  0.81355896  0.56023189  0.95830540     0.12900
H539        H  0.94142441  0.68673522  0.02872527     0.12900
H540        H  0.93567622  0.69207574  0.96274948     0.12900
H541        H  0.87703203  0.62363371  0.02281584     0.26100
H542        H  0.87105653  0.62948243  0.96657780     0.26100
N543        N  0.36514940  0.85923838  0.04898291    -0.36600
N544        N  0.33485478  0.88074974  0.99665197    -0.57200
N545        N  0.35748529  0.84910457  0.94674298    -0.36600
N546        N  0.38678563  0.82646392  0.99883090    -0.57200
C547        C  0.34919350  0.87205922  0.06816036     0.27000
C548        C  0.37621512  0.84286353  0.06952673     0.27000
C549        C  0.33806940  0.85758903  0.92914257     0.27000
C550        C  0.36627444  0.82946102  0.92996135     0.27000
C551        C  0.33059915  0.89670799  0.02205051     0.35600
C552        C  0.32668880  0.89137656  0.96788664     0.35600
C553        C  0.40121798  0.82159260  0.02578754     0.35600
C554        C  0.39820181  0.81734762  0.97117887     0.35600
C555        C  0.35038909  0.86398640  0.10140589    -0.21900
C556        C  0.36740864  0.84553929  0.10226951    -0.21900
C557        C  0.33430219  0.84297395  0.90099127    -0.21900
C558        C  0.35217491  0.82528958  0.90142821    -0.21900
C559        C  0.31952065  0.91750943  0.00945528    -0.23000
C560        C  0.31726472  0.91424741  0.97507858    -0.23000
C561        C  0.42177943  0.80904155  0.01531263    -0.23000
C562        C  0.42003348  0.80663435  0.98067795    -0.23000
C563        C  0.33474525  0.89183460  0.05675737    -0.18300
C564        C  0.39518501  0.82673435  0.05996127    -0.18300
C565        C  0.38809569  0.81685698  0.93806250    -0.18300
C566        C  0.32552898  0.87968754  0.93593255    -0.18300
H567        H  0.34023918  0.87083760  0.12288841     0.14600
H568        H  0.37291057  0.83547929  0.12459969     0.14600
H569        H  0.32061941  0.84533003  0.88153143     0.14600
H570        H  0.35487674  0.81132683  0.88245806     0.14600
H571        H  0.31345210  0.93326178  0.02360606     0.12900
H572        H  0.30903801  0.92700127  0.95754837     0.12900
H573        H  0.43644414  0.80223473  0.03101825     0.12900
H574        H  0.43304814  0.79747893  0.96450772     0.12900
H575        H  0.37013075  0.86321976  0.02420877     0.26100
H576        H  0.36634054  0.85824811  0.96619477     0.26100
N577        N  0.12831364  0.62503388  0.55659290    -0.36600
N578        N  0.10429682  0.65036127  0.50097719    -0.57200
N579        N  0.13449765  0.62431958  0.45305766    -0.36600
N580        N  0.15749344  0.59773621  0.50864325    -0.57200
C581        C  0.10946203  0.63541990  0.57323611     0.27000
C582        C  0.13812188  0.60805905  0.57741172     0.27000
C583        C  0.11777157  0.63426256  0.43191420     0.27000
C584        C  0.14573935  0.60611926  0.43602262     0.27000
C585        C  0.09523923  0.66321352  0.52730778     0.35600
C586        C  0.09887332  0.66311518  0.47264167     0.35600
C587        C  0.16909567  0.59147349  0.53763424     0.35600
C588        C  0.17208356  0.59077141  0.48279549     0.35600
C589        C  0.10733598  0.62500641  0.60513204    -0.21900
C590        C  0.12544642  0.60773098  0.60777017    -0.21900
C591        C  0.11848021  0.62233896  0.40099658    -0.21900
C592        C  0.13610534  0.60454182  0.40360038    -0.21900
C593        C  0.08385870  0.68415627  0.51565055    -0.23000
C594        C  0.08622686  0.68413344  0.48100404    -0.23000
C595        C  0.19104805  0.58023693  0.53015887    -0.23000
C596        C  0.19295045  0.57981135  0.49541822    -0.23000
C597        C  0.09546290  0.65536719  0.56143622    -0.18300
C598        C  0.15937499  0.59431143  0.57064543    -0.18300
C599        C  0.16586449  0.59239287  0.44801339    -0.18300
C600        C  0.10299610  0.65476615  0.43923180    -0.18300
H601        H  0.09438446  0.62969861  0.62473101     0.14600
H602        H  0.12914260  0.59651928  0.62975400     0.14600
H603        H  0.10764536  0.62626577  0.37873825     0.14600
H604        H  0.14154011  0.59214847  0.38366731     0.14600
H605        H  0.07447741  0.69781624  0.53050609     0.12900
H606        H  0.07895494  0.69772447  0.46387256     0.12900
H607        H  0.20417665  0.57284903  0.54786917     0.12900
H608        H  0.20781054  0.57198676  0.48107564     0.12900
H609        H  0.13595211  0.63131314  0.53419374     0.26100
H610        H  0.14001887  0.63146415  0.47617648     0.26100
N611        N  0.36093441  0.12071587  0.56336305    -0.36600
N612        N  0.33625277  0.09517488  0.50911802    -0.57200
N613        N  0.36478044  0.12188168  0.45905244    -0.36600
N614        N  0.39075818  0.14611806  0.51328250    -0.57200
C615        C  0.34859377  0.10388387  0.58154523     0.27000
C616        C  0.37832736  0.13003553  0.58382162     0.27000
C617        C  0.35546870  0.10393048  0.43950118     0.27000
C618        C  0.38318957  0.13223414  0.44144960     0.27000
C619        C  0.32210618  0.08805658  0.53532085     0.35600
C620        C  0.32499731  0.08776117  0.48049184     0.35600
C621        C  0.39855612  0.15737416  0.54173230     0.35600
C622        C  0.39926946  0.15921600  0.48677716     0.35600
C623        C  0.35790250  0.10289834  0.61417798    -0.21900
C624        C  0.37662472  0.11938490  0.61562551    -0.21900
C625        C  0.36796193  0.10306468  0.40899278    -0.21900
C626        C  0.38536881  0.12098601  0.41016738    -0.21900
C627        C  0.30172386  0.07609610  0.52328239    -0.23000
C628        C  0.30354616  0.07591780  0.48854318    -0.23000
C629        C  0.41229923  0.17758143  0.53322384    -0.23000
C630        C  0.41255295  0.17887676  0.49846015    -0.23000
C631        C  0.32857075  0.09002392  0.56992934    -0.18300
C632        C  0.39482109  0.14882945  0.57523077    -0.18300
C633        C  0.39742472  0.15221239  0.45231953    -0.18300
C634        C  0.33501510  0.08936563  0.44751512    -0.18300
H635        H  0.35179661  0.09154299  0.63489267     0.14600
H636        H  0.38761820  0.12318547  0.63773222     0.14600
H637        H  0.36468655  0.09095866  0.38787259     0.14600
H638        H  0.39817600  0.12525402  0.39023280     0.14600
H639        H  0.28736851  0.06781935  0.53802572     0.12900
H640        H  0.29085263  0.06748707  0.47122866     0.12900
H641        H  0.42143612  0.18997372  0.55025398     0.12900
H642        H  0.42207329  0.19232168  0.48349519     0.12900
H643        H  0.35620093  0.12719015  0.53954905     0.26100
H644        H  0.35731615  0.12846026  0.48143457     0.26100
N645        N  0.86871226  0.36552474  0.56262333    -0.36600
N646        N  0.90049423  0.34287085  0.51381897    -0.57200
N647        N  0.87947014  0.37345391  0.46090267    -0.36600
N648        N  0.84687346  0.39532977  0.51048999    -0.57200
C649        C  0.87702454  0.34610951  0.58029736     0.27000
C650        C  0.84844754  0.37365351  0.57843665     0.27000
C651        C  0.89187772  0.35707157  0.44186271     0.27000
C652        C  0.86377159  0.38532267  0.44013253     0.27000
C653        C  0.91132487  0.33520495  0.54271713     0.35600
C654        C  0.91607210  0.33792858  0.48826017     0.35600
C655        C  0.83778493  0.40655725  0.53824256     0.35600
C656        C  0.84260053  0.41028509  0.48394970     0.35600
C657        C  0.86164802  0.34157875  0.60740606    -0.21900
C658        C  0.84358243  0.35901080  0.60624061    -0.21900
C659        C  0.88434948  0.35894685  0.40841151    -0.21900
C660        C  0.86671160  0.37679455  0.40729735    -0.21900
C661        C  0.93406067  0.32554754  0.53550951    -0.23000
C662        C  0.93686841  0.32685381  0.50091161    -0.23000
C663        C  0.82783819  0.42886554  0.52934888    -0.23000
C664        C  0.83044616  0.43100669  0.49484975    -0.23000
C665        C  0.89964769  0.33443313  0.57469351    -0.18300
C666        C  0.83623599  0.39567812  0.57067940    -0.18300
C667        C  0.84780780  0.40449917  0.44976557    -0.18300
C668        C  0.91082527  0.34154837  0.45351549    -0.18300
H669        H  0.86374667  0.32771454  0.62669390     0.14600
H670        H  0.82904032  0.36122135  0.62446346     0.14600
H671        H  0.89108033  0.34875267  0.38689647     0.14600
H672        H  0.85728785  0.38289937  0.38474733     0.14600
H673        H  0.94687348  0.31753808  0.55313847     0.12900
H674        H  0.95237273  0.32026121  0.48671108     0.12900
H675        H  0.81884896  0.44184263  0.54576297     0.12900
H676        H  0.82395126  0.44604779  0.47959268     0.12900
H677        H  0.87839473  0.37495638  0.54419676     0.26100
H678        H  0.88318446  0.37795227  0.48591731     0.26100
N679        N  0.61986221  0.85573037  0.55239023    -0.36600
N680        N  0.59544445  0.82616415  0.50114983    -0.57200
N681        N  0.62585684  0.84755063  0.44929172    -0.36600
N682        N  0.65164119  0.87564389  0.50032893    -0.57200
C683        C  0.60723773  0.84028982  0.57252075     0.27000
C684        C  0.63653216  0.86707757  0.57206450     0.27000
C685        C  0.61532854  0.82930988  0.43160274     0.27000
C686        C  0.64489203  0.85564518  0.43080000     0.27000
C687        C  0.58103436  0.82140939  0.52804810     0.35600
C688        C  0.58345280  0.81815405  0.47341405     0.35600
C689        C  0.65878476  0.88961852  0.52668914     0.35600
C690        C  0.66161098  0.88550991  0.47218776     0.35600
C691        C  0.61564760  0.84227025  0.60553533    -0.21900
C692        C  0.63401638  0.85921864  0.60527434    -0.21900
C693        C  0.62789972  0.82571884  0.40155117    -0.21900
C694        C  0.64641455  0.84248277  0.40090714    -0.21900
C695        C  0.55989702  0.81006765  0.51739300    -0.23000
C696        C  0.56125604  0.80835439  0.48274114    -0.23000
C697        C  0.67373520  0.90815705  0.51528241    -0.23000
C698        C  0.67545478  0.90560496  0.48077964    -0.23000
C699        C  0.58756534  0.82532617  0.56228073    -0.18300
C700        C  0.65327708  0.88505358  0.56116593    -0.18300
C701        C  0.65978518  0.87572713  0.43911828    -0.18300
C702        C  0.59326868  0.81759841  0.44026661    -0.18300
H703        H  0.60908740  0.83267594  0.62765512     0.14600
H704        H  0.64433270  0.86506708  0.62713547     0.14600
H705        H  0.62372042  0.81283671  0.38167170     0.14600
H706        H  0.65931526  0.84489926  0.38049789     0.14600
H707        H  0.54509719  0.80353009  0.53294760     0.12900
H708        H  0.54777184  0.80013723  0.46642669     0.12900
H709        H  0.68268993  0.92196185  0.53026697     0.12900
H710        H  0.68603619  0.91701470  0.46402691     0.12900
H711        H  0.61576439  0.86001692  0.52743744     0.26100
H712        H  0.61852382  0.85619954  0.47032772     0.26100
C713        C  0.29777493  0.07104127  0.37012494    -0.01900
C714        C  0.30132996  0.04557131  0.36952441     0.07800
C715        C  0.31667984  0.03463019  0.39388884    -0.02000
C716        C  0.32815405  0.04900584  0.41878233    -0.02000
C717        C  0.32388162  0.07432584  0.42003566     0.07900
C718        C  0.30879561  0.08530544  0.39547755    -0.02200
Br719      Br  0.30297196  0.11994024  0.39696699    -0.00700
Br720      Br  0.27847371  0.08665208  0.33546036    -0.00800
Br721      Br  0.35001527  0.03415480  0.45109039    -0.00800
Br722      Br  0.32112183  0.99981115  0.39423509    -0.00700
C723        C  0.28706118  0.91771580  0.11711172    -0.01900
C724        C  0.29876603  0.93891415  0.12940118     0.07800
C725        C  0.32247383  0.94435242  0.11763474    -0.02000
C726        C  0.33452448  0.92845046  0.09508319    -0.02000
C727        C  0.32256356  0.90778325  0.08238040     0.07900
C728        C  0.29875211  0.90259342  0.09320043    -0.02200
Br729      Br  0.28237401  0.87432858  0.07540845    -0.00700
Br730      Br  0.25562652  0.90805576  0.13412128    -0.00800
Br731      Br  0.36757421  0.93480966  0.08139329    -0.00800
Br732      Br  0.33805394  0.97446193  0.13008705    -0.00700
C733        C  0.06486933  0.66418209  0.40640945    -0.01900
C734        C  0.09007223  0.66747012  0.41086691     0.07800
C735        C  0.10262018  0.68387282  0.38973786    -0.02000
C736        C  0.08998708  0.69711388  0.36456295    -0.02000
C737        C  0.06456023  0.69446402  0.36083558     0.07900
C738        C  0.05206047  0.67802788  0.38213534    -0.02200
Br739      Br  0.01708570  0.67568836  0.38015981    -0.00700
Br740      Br  0.04797167  0.64041141  0.43358012    -0.00800
Br741      Br  0.10781418  0.71827437  0.33455301    -0.00800
Br742      Br  0.13712538  0.68842653  0.39576313    -0.00700
C743        C  0.91697411  0.70393932  0.13114964    -0.01900
C744        C  0.94139993  0.69799893  0.13910755     0.07800
C745        C  0.95300459  0.67905654  0.12074801    -0.02000
C746        C  0.94017778  0.66596758  0.09570462    -0.02000
C747        C  0.91630650  0.67279079  0.08679283     0.07900
C748        C  0.90490398  0.69206440  0.10428397    -0.02200
Br749      Br  0.87251505  0.70206986  0.09131431    -0.00700
Br750      Br  0.89904966  0.72686212  0.15858170    -0.00800
Br751      Br  0.95515916  0.63842541  0.07358265    -0.00800
Br752      Br  0.98698522  0.67176011  0.12780642    -0.00700
C753        C  0.67946507  0.91991658  0.37026105    -0.01900
C754        C  0.70261791  0.91058062  0.36130748     0.07800
C755        C  0.71137691  0.88935097  0.37760075    -0.02000
C756        C  0.69752372  0.87809656  0.40320713    -0.02000
C757        C  0.67435787  0.88724457  0.41160715     0.07900
C758        C  0.66522898  0.90794513  0.39476031    -0.02200
Br759      Br  0.63325842  0.92014271  0.40601949    -0.00700
Br760      Br  0.66765839  0.95012216  0.35122752    -0.00800
Br761      Br  0.71028798  0.85028920  0.42733227    -0.00800
Br762      Br  0.74181986  0.87482682  0.36394663    -0.00700
C763        C  0.67337479  0.03314684  0.14490921    -0.01900
C764        C  0.69920089  0.03271298  0.14530805     0.07800
C765        C  0.71190498  0.04503945  0.11920360    -0.02000
C766        C  0.69923563  0.05949322  0.09549137    -0.02000
C767        C  0.67361386  0.06010253  0.09549243     0.07900
C768        C  0.66077080  0.04616356  0.11947024    -0.02200
Br769      Br  0.62571095  0.04475309  0.11698453    -0.00700
Br770      Br  0.65456721  0.01726201  0.17973923    -0.00800
Br771      Br  0.71714108  0.07908441  0.06344831    -0.00800
Br772      Br  0.74653647  0.04065459  0.11334636    -0.00700
C773        C  0.08881457  0.97945853  0.23686547    -0.01900
C774        C  0.07621273  0.99954291  0.25068801     0.07800
C775        C  0.08964098  0.01928370  0.26374541    -0.02000
C776        C  0.11521666  0.01968763  0.26080217    -0.02000
C777        C  0.12791262  0.99936731  0.24760566     0.07900
C778        C  0.11450055  0.97903058  0.23625148    -0.02200
Br779      Br  0.13108483  0.94965863  0.22232086    -0.00700
Br780      Br  0.07093890  0.95162685  0.22098802    -0.00800
Br781      Br  0.13250016  0.04897878  0.27280534    -0.00800
Br782      Br  0.07316729  0.04587240  0.28610288    -0.00700
C783        C  0.00707581  0.91071808  0.22770173    -0.01900
C784        C  0.00065081  0.92415347  0.25733510     0.07800
C785        C  0.99485383  0.91077182  0.28721123    -0.02000
C786        C  0.99583725  0.88498741  0.28742778    -0.02000
C787        C  0.00183036  0.87194717  0.25777478     0.07900
C788        C  0.00773660  0.88498216  0.22816121    -0.02200
Br789      Br  0.01847795  0.86741969  0.18836347    -0.00700
Br790      Br  0.01569234  0.92660649  0.18560041    -0.00800
Br791      Br  0.98812685  0.86740455  0.32846976    -0.00800
Br792      Br  0.98376249  0.92693891  0.32795388    -0.00700
C793        C  0.91266218  0.00869010  0.29192667    -0.01900
C794        C  0.92471830  0.00103188  0.26172500     0.07800
C795        C  0.91012451  0.99232396  0.23445273    -0.02000
C796        C  0.88457378  0.99070047  0.23784431    -0.02000
C797        C  0.87301605  0.99789004  0.26805992     0.07900
C798        C  0.88711871  0.00679303  0.29502735    -0.02200
Br799      Br  0.87107545  0.01696575  0.33627371    -0.00700
Br800      Br  0.93015812  0.02322616  0.32925423    -0.00800
Br801      Br  0.86525273  0.97715641  0.20155261    -0.00800
Br802      Br  0.92425029  0.98162766  0.19208531    -0.00700
C803        C  0.96159899  0.32252558  0.39309420    -0.01900
C804        C  0.95241057  0.30046340  0.37970383     0.07800
C805        C  0.92950053  0.29201255  0.39098365    -0.02000
C806        C  0.91635918  0.30513741  0.41568383    -0.02000
C807        C  0.92523742  0.32745373  0.42803612     0.07900
C808        C  0.94772163  0.33624960  0.41634593    -0.02200
Br809      Br  0.95936460  0.36727588  0.43232145    -0.00700
Br810      Br  0.99386997  0.33351356  0.38160918    -0.00800
Br811      Br  0.88589624  0.29272204  0.43261921    -0.00800
Br812      Br  0.91490568  0.26345541  0.37120750    -0.00700
C813        C  0.09182248  0.30988684  0.10480338    -0.01900
C814        C  0.08301428  0.33254271  0.09338206     0.07800
C815        C  0.06108603  0.34183325  0.10653066    -0.02000
C816        C  0.04738818  0.32800956  0.12981429    -0.02000
C817        C  0.05620486  0.30521742  0.14152173     0.07900
C818        C  0.07883579  0.29652722  0.12928737    -0.02200
Br819      Br  0.09332448  0.26721455  0.14740001    -0.00700
Br820      Br  0.12204933  0.29734113  0.08690445    -0.00800
Br821      Br  0.01585924  0.33996173  0.14365115    -0.00800
Br822      Br  0.04997492  0.37361951  0.09246888    -0.00700
C823        C  0.98443302  0.11541251  0.26617054    -0.01900
C824        C  0.00520103  0.12768964  0.25377691     0.07800
C825        C  0.02411734  0.11384677  0.23875945    -0.02000
C826        C  0.02225103  0.08824957  0.23636629    -0.02000
C827        C  0.00247010  0.07599904  0.25138874     0.07900
C828        C  0.98331145  0.08976239  0.26541741    -0.02200
Br829      Br  0.95437084  0.07345841  0.28072424    -0.00700
Br830      Br  0.95647369  0.13346818  0.28205456    -0.00800
Br831      Br  0.04658993  0.07011661  0.21167486    -0.00800
Br832      Br  0.05353448  0.12944959  0.22342974    -0.00700
C833        C  0.67047516  0.93705161  0.62033335    -0.01900
C834        C  0.69178729  0.92782149  0.63571746     0.07800
C835        C  0.70036052  0.90444503  0.62670793    -0.02000
C836        C  0.68775542  0.89046856  0.60251639    -0.02000
C837        C  0.66635054  0.89961085  0.58742332     0.07900
C838        C  0.65775260  0.92292895  0.59641155    -0.02200
Br839      Br  0.62870556  0.93562072  0.57528749    -0.00700
Br840      Br  0.65935349  0.96957865  0.63052327    -0.00800
Br841      Br  0.69978971  0.85873218  0.58985265    -0.00800
Br842      Br  0.72891339  0.89105570  0.64836433    -0.00700
C843        C  0.67055967  0.04762774  0.86499986    -0.01900
C844        C  0.69608143  0.04393208  0.86497727     0.07800
C845        C  0.70990813  0.05265548  0.89277143    -0.02000
C846        C  0.69857503  0.06588927  0.91897658    -0.02000
C847        C  0.67309914  0.06851209  0.91959842     0.07900
C848        C  0.65911876  0.05889331  0.89285559    -0.02200
Br849      Br  0.62408538  0.06096074  0.89453126    -0.00700
Br850      Br  0.65094796  0.03938872  0.82605048    -0.00800
Br851      Br  0.71809040  0.08136196  0.95346700    -0.00800
Br852      Br  0.74417566  0.04536677  0.89697438    -0.00700
C853        C  0.92824346  0.32067773  0.66089853    -0.01900
C854        C  0.93367541  0.29548757  0.65828584     0.07800
C855        C  0.92738240  0.28315192  0.62789302    -0.02000
C856        C  0.91493508  0.29549837  0.60171693    -0.02000
C857        C  0.91129167  0.32087341  0.60349640     0.07900
C858        C  0.91851922  0.33343754  0.63298470    -0.02200
Br859      Br  0.91594187  0.36846953  0.63490085    -0.00700
Br860      Br  0.93211041  0.33801234  0.70318211    -0.00800
Br861      Br  0.90228765  0.27738510  0.56364184    -0.00800
Br862      Br  0.93740804  0.24996555  0.61953936    -0.00700
C863        C  0.07327425  0.31853714  0.86342303    -0.01900
C864        C  0.06780064  0.29351467  0.86784469     0.07800
C865        C  0.07591305  0.28171800  0.89784190    -0.02000
C866        C  0.08997927  0.29445380  0.92187268    -0.02000
C867        C  0.09330201  0.31977604  0.91873487     0.07900
C868        C  0.08442257  0.33180094  0.88966442    -0.02200
Br869      Br  0.08662206  0.36679144  0.88621749    -0.00700
Br870      Br  0.06767961  0.33487950  0.82070179    -0.00800
Br871      Br  0.10521159  0.27708148  0.95884384    -0.00800
Br872      Br  0.06618100  0.24889948  0.90863155    -0.00700
C873        C  0.28263731  0.07211883  0.63786015    -0.01900
C874        C  0.28936734  0.04769091  0.64447942     0.07800
C875        C  0.30883275  0.03719224  0.62614229    -0.02000
C876        C  0.32149122  0.05101962  0.60177226    -0.02000
C877        C  0.31472845  0.07534256  0.59528898     0.07900
C878        C  0.29525434  0.08582675  0.61332632    -0.02200
Br879      Br  0.28598433  0.11909304  0.60427310    -0.00700
Br880      Br  0.25682137  0.08740436  0.66336026    -0.00800
Br881      Br  0.34832083  0.03680469  0.57713753    -0.00800
Br882      Br  0.31752214  0.00349237  0.63289420    -0.00700
C883        C  0.27214822  0.90858450  0.88836990    -0.01900
C884        C  0.28366468  0.91760019  0.85875601     0.07800
C885        C  0.30856293  0.91208953  0.85350697    -0.02000
C886        C  0.32227640  0.90052597  0.87905084    -0.02000
C887        C  0.31076210  0.89137533  0.90831085     0.07900
C888        C  0.28538469  0.89439961  0.91192750    -0.02200
Br889      Br  0.26872234  0.87896655  0.94928084    -0.00700
Br890      Br  0.23886863  0.91694487  0.89892479    -0.00800
Br891      Br  0.35719001  0.89853293  0.87450890    -0.00800
Br892      Br  0.32395033  0.91828449  0.81034824    -0.00700
C893        C  0.90279817  0.02229814  0.71456260    -0.01900
C894        C  0.91391429  0.00351346  0.73360807     0.07800
C895        C  0.89921123  0.98669366  0.75128772    -0.02000
C896        C  0.87370725  0.98859464  0.74964555    -0.02000
C897        C  0.86274523  0.00682650  0.72968054     0.07900
C898        C  0.87727947  0.02372605  0.71228526    -0.02200
Br899      Br  0.86208933  0.04875023  0.68516558    -0.00700
Br900      Br  0.92231258  0.04698736  0.69306696    -0.00800
Br901      Br  0.85363910  0.96632349  0.77501746    -0.00800
Br902      Br  0.91369630  0.96015374  0.77643111    -0.00700
C903        C  0.99388833  0.08665022  0.71473422    -0.01900
C904        C  0.99702876  0.07139946  0.74372254     0.07800
C905        C  0.00351671  0.08263861  0.77504656    -0.02000
C906        C  0.00616795  0.10816042  0.77725640    -0.02000
C907        C  0.00265945  0.12297908  0.74849834     0.07900
C908        C  0.99735218  0.11202831  0.71712793    -0.02200
Br909      Br  0.99615901  0.13188020  0.67659521    -0.00700
Br910      Br  0.98338955  0.07414638  0.67124482    -0.00800
Br911      Br  0.01374647  0.12287841  0.82051919    -0.00800
Br912      Br  0.00897670  0.06407338  0.81613418    -0.00700
C913        C  0.07445875  0.97038962  0.71694925    -0.01900
C914        C  0.06302639  0.98698719  0.73930974     0.07800
C915        C  0.07736995  0.00048144  0.76229460    -0.02000
C916        C  0.10277342  0.99728264  0.76301033    -0.02000
C917        C  0.11409626  0.98130429  0.74002410     0.07900
C918        C  0.09995497  0.96788652  0.71701318    -0.02200
Br919      Br  0.11570592  0.94619423  0.68538725    -0.00700
Br920      Br  0.05538886  0.95016157  0.68709206    -0.00800
Br921      Br  0.12223433  0.01491059  0.79539657    -0.00800
Br922      Br  0.06272084  0.02472401  0.79126461    -0.00700
C923        C  0.04098709  0.67585964  0.61372149    -0.01900
C924        C  0.05110480  0.69512323  0.63267149     0.07800
C925        C  0.07583857  0.70117752  0.62822649    -0.02000
C926        C  0.09030079  0.68806278  0.60511066    -0.02000
C927        C  0.08017109  0.66885817  0.58629962     0.07900
C928        C  0.05552972  0.66272702  0.59066003    -0.02200
Br929      Br  0.04184357  0.63633933  0.56476151    -0.00700
Br930      Br  0.00691609  0.66823672  0.61787124    -0.00800
Br931      Br  0.12404912  0.69642914  0.59877568    -0.00800
Br932      Br  0.09026430  0.72698982  0.65445445    -0.00700
C933        C  0.92243784  0.68170152  0.85394067    -0.01900
C934        C  0.92725348  0.70697626  0.85454618     0.07800
C935        C  0.91925121  0.72078119  0.88285860    -0.02000
C936        C  0.90605273  0.70954753  0.90926620    -0.02000
C937        C  0.90318451  0.68405749  0.90977692     0.07900
C938        C  0.91196833  0.67020801  0.88224130    -0.02200
Br939      Br  0.91059880  0.63514091  0.88361145    -0.00700
Br940      Br  0.92781564  0.66263297  0.81345936    -0.00800
Br941      Br  0.89131156  0.72917596  0.94430857    -0.00800
Br942      Br  0.92757893  0.75471546  0.88749380    -0.00700
C943        C  0.99707866  0.88093200  0.73984759    -0.01900
C944        C  0.97770496  0.87082233  0.72124774     0.07800
C945        C  0.95999806  0.88617119  0.70667210    -0.02000
C946        C  0.96161801  0.91157717  0.71068911    -0.02000
C947        C  0.98114732  0.92174149  0.72898462     0.07900
C948        C  0.99881739  0.90633338  0.74370111    -0.02200
Br949      Br  0.02593816  0.91998076  0.76818378    -0.00700
Br950      Br  0.02104932  0.85992265  0.76059809    -0.00800
Br951      Br  0.93644278  0.93236480  0.69243105    -0.00800
Br952      Br  0.93388746  0.87234597  0.68041183    -0.00700
C953        C  0.81708697  0.57703401  0.85212588    -0.01900
C954        C  0.79203847  0.57137843  0.85504680     0.07800
C955        C  0.77952537  0.57882307  0.88486543    -0.02000
C956        C  0.79167861  0.59232699  0.91012005    -0.02000
C957        C  0.81705157  0.59549066  0.90851892     0.07900
C958        C  0.82973032  0.58719489  0.87970481    -0.02200
Br959      Br  0.86475801  0.58840380  0.87865077    -0.00700
Br960      Br  0.83426629  0.57314915  0.80974082    -0.00800
Br961      Br  0.77354719  0.60674599  0.94694885    -0.00800
Br962      Br  0.74656120  0.56884616  0.89404675    -0.00700
C963        C  0.78351300  0.42458087  0.61963724    -0.01900
C964        C  0.79518008  0.43195861  0.65008041     0.07800
C965        C  0.82019173  0.42646011  0.65427567    -0.02000
C966        C  0.83367105  0.41647955  0.62735092    -0.02000
C967        C  0.82181388  0.40795895  0.59802213     0.07900
C968        C  0.79644967  0.41115983  0.59498491    -0.02200
Br969      Br  0.77931549  0.39692687  0.55713381    -0.00700
Br970      Br  0.75060056  0.43435181  0.60913143    -0.00800
Br971      Br  0.86871178  0.41598472  0.63000208    -0.00800
Br972      Br  0.83613768  0.43013269  0.69761624    -0.00700
C973        C  0.58790145  0.18705582  0.92587700    -0.01900
C974        C  0.58964076  0.16146582  0.92587826     0.07800
C975        C  0.57858459  0.14824714  0.89938826    -0.02000
C976        C  0.56691341  0.16050715  0.87248623    -0.02000
C977        C  0.56346949  0.18608513  0.87373066     0.07900
C978        C  0.57355441  0.19913572  0.90139289    -0.02200
Br979      Br  0.56633969  0.23318237  0.90836845    -0.00700
Br980      Br  0.60610516  0.20573270  0.95861145    -0.00800
Br981      Br  0.55782747  0.14183665  0.83299798    -0.00800
Br982      Br  0.57891689  0.11307914  0.90012302    -0.00700
C983        C  0.43101958  0.14934369  0.61433248    -0.01900
C984        C  0.40920089  0.16021061  0.60308688     0.07800
C985        C  0.40112995  0.18207647  0.61791213    -0.02000
C986        C  0.41521185  0.19354370  0.64302525    -0.02000
C987        C  0.43727656  0.18286892  0.65412947     0.07900
C988        C  0.44493195  0.16049919  0.63996602    -0.02200
Br989      Br  0.47523170  0.14572874  0.65387478    -0.00700
Br990      Br  0.44199676  0.11933753  0.59396402    -0.00800
Br991      Br  0.40374263  0.22368945  0.66252241    -0.00800
Br992      Br  0.37071006  0.19631059  0.60341208    -0.00700
C993        C  0.17090919  0.41449186  0.88552879    -0.01900
C994        C  0.18354802  0.40571142  0.91419052     0.07800
C995        C  0.20912668  0.40760125  0.91524115    -0.02000
C996        C  0.22178343  0.41936867  0.88877863    -0.02000
C997        C  0.20916120  0.42780409  0.85968682     0.07900
C998        C  0.18367156  0.42441627  0.85786865    -0.02200
Br999      Br  0.16590242  0.43170988  0.81679004    -0.00700
Br1000     Br  0.13579339  0.41398100  0.88463116    -0.00800
Br1001     Br  0.25614109  0.42525594  0.89423736    -0.00800
Br1002     Br  0.22692864  0.39388071  0.95296161    -0.00700
C1003       C  0.18718656  0.59590482  0.62132094    -0.01900
C1004       C  0.17211565  0.58221626  0.59961259     0.07800
C1005       C  0.16981640  0.55693513  0.60473254    -0.02000
C1006       C  0.18350930  0.54520747  0.63015472    -0.02000
C1007       C  0.19894769  0.55880812  0.65139687     0.07900
C1008       C  0.20045243  0.58423539  0.64729368    -0.02200
Br1009     Br  0.22090416  0.60298141  0.67708979    -0.00700
Br1010     Br  0.19018451  0.63055413  0.61470324    -0.00800
Br1011     Br  0.18217924  0.51026631  0.63463642    -0.00800
Br1012     Br  0.14783455  0.53841730  0.57685161    -0.00700
C1013       C  0.58372882  0.50975093  0.73176503    -0.01900
C1014       C  0.57208663  0.48989505  0.74749178     0.07800
C1015       C  0.58567177  0.47367431  0.76780086    -0.02000
C1016       C  0.61096444  0.47672753  0.77116729    -0.02000
C1017       C  0.62274558  0.49608571  0.75444530     0.07900
C1018       C  0.60897187  0.51293428  0.73540176    -0.02200
Br1019     Br  0.62471910  0.53973059  0.71274321    -0.00700
Br1020     Br  0.56502418  0.53285120  0.70545071    -0.00800
Br1021     Br  0.62945624  0.45452153  0.79914139    -0.00800
Br1022     Br  0.56995893  0.44639946  0.78940761    -0.00700
C1023       C  0.52763148  0.39429550  0.72125358    -0.01900
C1024       C  0.50730769  0.40576421  0.73645848     0.07800
C1025       C  0.48999388  0.39144002  0.75381101    -0.02000
C1026       C  0.49265016  0.36594689  0.75509125    -0.02000
C1027       C  0.51272760  0.35460281  0.73949765     0.07900
C1028       C  0.53025275  0.36878469  0.72274461    -0.02200
Br1029     Br  0.55762674  0.35302216  0.70129078    -0.00700
Br1030     Br  0.55268915  0.41343000  0.69987724    -0.00800
Br1031     Br  0.46870564  0.34641562  0.77819567    -0.00800
Br1032     Br  0.46199892  0.40640839  0.77489363    -0.00700
C1033       C  0.41117741  0.49640035  0.72368173    -0.01900
C1034       C  0.42510369  0.47578356  0.71489601     0.07800
C1035       C  0.41343520  0.45464559  0.70313574    -0.02000
C1036       C  0.38780697  0.45357420  0.70241048    -0.02000
C1037       C  0.37379846  0.47400554  0.71210102     0.07900
C1038       C  0.38564155  0.49565554  0.72192921    -0.02200
Br1039     Br  0.36712274  0.52404840  0.73510170    -0.00700
Br1040     Br  0.42718829  0.52582889  0.73818651    -0.00800
Br1041     Br  0.37189922  0.42410151  0.68812917    -0.00800
Br1042     Br  0.43260047  0.42701478  0.68893125    -0.00700
C1043       C  0.42235650  0.80235575  0.85597936    -0.01900
C1044       C  0.42639536  0.77687350  0.85866565     0.07800
C1045       C  0.41707420  0.76461487  0.88757636    -0.02000
C1046       C  0.40314965  0.77731625  0.91200624    -0.02000
C1047       C  0.40092309  0.80287709  0.91048543     0.07900
C1048       C  0.41108066  0.81532364  0.88261817    -0.02200
Br1049     Br  0.41026946  0.85047593  0.88136422    -0.00700
Br1050     Br  0.43006219  0.81990512  0.81493905    -0.00800
Br1051     Br  0.38642859  0.75952990  0.94715288    -0.00800
Br1052     Br  0.42487131  0.73090343  0.89632304    -0.00700
C1053       C  0.58297598  0.78883085  0.59994004    -0.01900
C1054       C  0.57398491  0.81149006  0.58875365     0.07800
C1055       C  0.55175503  0.82036413  0.60154702    -0.02000
C1056       C  0.53839387  0.80649807  0.62512497    -0.02000
C1057       C  0.54759890  0.78396293  0.63695161     0.07900
C1058       C  0.57007335  0.77527641  0.62428949    -0.02200
Br1059     Br  0.58393119  0.74523992  0.64096932    -0.00700
Br1060     Br  0.61294227  0.77625330  0.58125462    -0.00800
Br1061     Br  0.50661383  0.81768143  0.63897703    -0.00800
Br1062     Br  0.53937860  0.85127390  0.58583435    -0.00700
C1063       C  0.49688750  0.59512709  0.75476770    -0.01900
C1064       C  0.48450621  0.60675634  0.72795044     0.07800
C1065       C  0.47625368  0.59282357  0.70026260    -0.02000
C1066       C  0.47903748  0.56727362  0.70029002    -0.02000
C1067       C  0.49146117  0.55552409  0.72720836     0.07900
C1068       C  0.50107589  0.56980456  0.75386538    -0.02200
Br1069     Br  0.52185760  0.55526443  0.78793063    -0.00700
Br1070     Br  0.50911228  0.61404185  0.79225565    -0.00800
Br1071     Br  0.46449268  0.54866624  0.66407085    -0.00800
Br1072     Br  0.46057591  0.60875334  0.66243882    -0.00700
C1073       C  0.17994613  0.45694987  0.12503983    -0.01900
C1074       C  0.20115468  0.44683706  0.13983336     0.07800
C1075       C  0.20880379  0.42330267  0.13000744    -0.02000
C1076       C  0.19663056  0.41092384  0.10386249    -0.02000
C1077       C  0.17525205  0.42077749  0.08966719     0.07900
C1078       C  0.16672640  0.44364189  0.10068713    -0.02200
Br1079     Br  0.13703836  0.45673309  0.08187555    -0.00700
Br1080     Br  0.16929144  0.48935082  0.13681351    -0.00800
Br1081     Br  0.20947002  0.38054589  0.08696672    -0.00800
Br1082     Br  0.23439324  0.40674521  0.15449024    -0.00700
C1083       C  0.19338225  0.54040752  0.39642173    -0.01900
C1084       C  0.20924431  0.55304320  0.37448556     0.07800
C1085       C  0.21077852  0.57863007  0.37671861    -0.02000
C1086       C  0.19662476  0.59143410  0.40064848    -0.02000
C1087       C  0.18096114  0.57876037  0.42276181     0.07900
C1088       C  0.17935101  0.55320113  0.42048289    -0.02200
Br1089     Br  0.15723984  0.53578956  0.44966841    -0.00700
Br1090     Br  0.19107598  0.50541923  0.39400140    -0.00800
Br1091     Br  0.19839982  0.62648413  0.40283146    -0.00800
Br1092     Br  0.23122898  0.59639643  0.34571950    -0.00700
C1093       C  0.44204555  0.81166613  0.12833313    -0.01900
C1094       C  0.43444599  0.78821065  0.13864501     0.07800
C1095       C  0.41327897  0.77810797  0.12405638    -0.02000
C1096       C  0.40075908  0.79058760  0.09815893    -0.02000
C1097       C  0.40871536  0.81363444  0.08733431     0.07900
C1098       C  0.42902509  0.82439483  0.10301425    -0.02200
Br1099     Br  0.43898855  0.85656985  0.08936851    -0.00700
Br1100     Br  0.47086020  0.82615877  0.14743744    -0.00800
Br1101     Br  0.37235358  0.77630173  0.07759938    -0.00800
Br1102     Br  0.40025706  0.74785536  0.14095468    -0.00700
C1103       C  0.56363436  0.76679362  0.38879111    -0.01900
C1104       C  0.55423390  0.77989115  0.36071517     0.07800
C1105       C  0.55802992  0.80530701  0.35888669    -0.02000
C1106       C  0.56959664  0.81758595  0.38567081    -0.02000
C1107       C  0.57973996  0.80441133  0.41296813     0.07900
C1108       C  0.57722816  0.77886656  0.41394563    -0.02200
Br1109     Br  0.59287916  0.76025253  0.44939714    -0.00700
Br1110     Br  0.55690295  0.73254406  0.39448057    -0.00800
Br1111     Br  0.57105066  0.85271902  0.38523571    -0.00800
Br1112     Br  0.54953935  0.82345382  0.31859321    -0.00700
C1113       C  0.84193430  0.55333766  0.09123370    -0.01900
C1114       C  0.83245794  0.57638493  0.08259067     0.07800
C1115       C  0.81128058  0.58494225  0.09881925    -0.02000
C1116       C  0.79991148  0.57083173  0.12401513    -0.02000
C1117       C  0.80854039  0.54715981  0.13150854     0.07900
C1118       C  0.82974744  0.53852530  0.11501559    -0.02200
Br1119     Br  0.84175188  0.50606799  0.12368513    -0.00700
Br1120     Br  0.87162437  0.54217571  0.07026336    -0.00800
Br1121     Br  0.77388980  0.58511112  0.15020491    -0.00800
Br1122     Br  0.79783835  0.61619656  0.08631682    -0.00700
C1123       C  0.81401503  0.40831419  0.40713764    -0.01900
C1124       C  0.83472800  0.41840329  0.42270788     0.07800
C1125       C  0.84257725  0.44181368  0.41315112    -0.02000
C1126       C  0.82942901  0.45531141  0.38880448    -0.02000
C1127       C  0.80901234  0.44498134  0.37252690     0.07900
C1128       C  0.80161831  0.42121624  0.38152194    -0.02200
Br1129     Br  0.77552176  0.40535465  0.35746105    -0.00700
Br1130     Br  0.80256707  0.37667644  0.42109245    -0.00800
Br1131     Br  0.83870491  0.48847177  0.37941055    -0.00800
Br1132     Br  0.87133524  0.45536993  0.43374437    -0.00700
C1133       C  0.39428351  0.51171975  0.22557028    -0.01900
C1134       C  0.38076219  0.49433154  0.24383814     0.07800
C1135       C  0.39301463  0.47477362  0.25957996    -0.02000
C1136       C  0.41861566  0.47296682  0.25788064    -0.02000
C1137       C  0.43224127  0.49063470  0.24019778     0.07900
C1138       C  0.41990394  0.50988695  0.22369988    -0.02200
Br1139     Br  0.43813069  0.53442338  0.19979328    -0.00700
Br1140     Br  0.37760421  0.53835156  0.20363064    -0.00800
Br1141     Br  0.43500180  0.44566191  0.27872838    -0.00800
Br1142     Br  0.37457416  0.45011641  0.28287557    -0.00700
C1143       C  0.53041617  0.59873455  0.21205574    -0.01900
C1144       C  0.51301505  0.61344204  0.22838605     0.07800
C1145       C  0.49513329  0.60264964  0.24898825    -0.02000
C1146       C  0.49420301  0.57714731  0.25252064    -0.02000
C1147       C  0.51118825  0.56226133  0.23533402     0.07900
C1148       C  0.52943850  0.57321189  0.21527262    -0.02200
Br1149     Br  0.55393526  0.55344823  0.19339490    -0.00700
Br1150     Br  0.55581996  0.61372400  0.18566606    -0.00800
Br1151     Br  0.46897622  0.56277549  0.27994358    -0.00800
Br1152     Br  0.47222418  0.62297954  0.27301370    -0.00700
C1153       C  0.59705131  0.46756652  0.22980085    -0.01900
C1154       C  0.58324442  0.48618065  0.24540424     0.07800
C1155       C  0.59550123  0.50515399  0.26250595    -0.02000
C1156       C  0.62117918  0.50580622  0.26317015    -0.02000
C1157       C  0.63489378  0.48735833  0.24723816     0.07900
C1158       C  0.62273271  0.46800484  0.23114613    -0.02200
Br1159     Br  0.64139216  0.44145774  0.21238847    -0.00700
Br1160     Br  0.58082538  0.44078166  0.20788408    -0.00800
Br1161     Br  0.63768993  0.53230878  0.28536747    -0.00800
Br1162     Br  0.57723626  0.53097266  0.28393875    -0.00700
C1163       C  0.55551619  0.15851811  0.14387330    -0.01900
C1164       C  0.56390922  0.18144730  0.15541019     0.07800
C1165       C  0.58578899  0.19083936  0.14171740    -0.02000
C1166       C  0.59808637  0.17833011  0.11557263    -0.02000
C1167       C  0.58949602  0.15570960  0.10402688     0.07900
C1168       C  0.56861272  0.14554428  0.11891991    -0.02200
Br1169     Br  0.55792728  0.11375108  0.10458523    -0.00700
Br1170     Br  0.52526054  0.14513939  0.16003796    -0.00800
Br1171     Br  0.62689964  0.19206580  0.09537145    -0.00800
Br1172     Br  0.60019206  0.22000193  0.16002290    -0.00700
C1173       C  0.43777801  0.16124834  0.42476546    -0.01900
C1174       C  0.41249837  0.16539443  0.42656086     0.07800
C1175       C  0.40156373  0.18203192  0.40391841    -0.02000
C1176       C  0.41577542  0.19435401  0.37957141    -0.02000
C1177       C  0.44123436  0.19063119  0.37822327     0.07900
C1178       C  0.45214539  0.17417353  0.40129443    -0.02200
Br1179     Br  0.48701112  0.17019928  0.40236369    -0.00700
Br1180     Br  0.45260364  0.13725472  0.45404952    -0.00800
Br1181     Br  0.39993067  0.21529333  0.34699111    -0.00800
Br1182     Br  0.36698485  0.18789866  0.40638811    -0.00700
C1183       C  0.51651850  0.37295695  0.27254517    -0.01900
C1184       C  0.50168221  0.36017762  0.24955938     0.07800
C1185       C  0.48818660  0.37322524  0.22516618    -0.02000
C1186       C  0.48924208  0.39889431  0.22398923    -0.02000
C1187       C  0.50405063  0.41185777  0.24715752     0.07900
C1188       C  0.51759629  0.39862581  0.27159778    -0.02200
Br1189     Br  0.53866289  0.41524551  0.30312793    -0.00700
Br1190     Br  0.53650931  0.35506778  0.30423340    -0.00800
Br1191     Br  0.46901265  0.41605692  0.19171648    -0.00800
Br1192     Br  0.46763070  0.35584240  0.19384598    -0.00700
loop_ 
_geom_bond_atom_site_label_1 
_geom_bond_atom_site_label_2 
_geom_bond_distance 
_geom_bond_site_symmetry_2 
_ccdc_geom_bond_type 
N1            N2   1.324       .  A
N1            C5   1.348       .  A
N1           Cu9   2.092       .  S
N2            C3   1.349       .  A
N2           Cu8   2.095       .  S
C3            C4   1.388       .  A
C3            H6   1.082       .  S
C4            C5   1.387       .  A
C4         C1177   1.494       .  S
C5            H7   1.082       .  S
Cu8          N11   2.095       .  S
Cu9          N19   2.091       .  S
Cu10         N12   2.089       .  S
Cu10         N18   2.089       .  S
N11          N12   1.324       .  A
N11          C15   1.349       .  A
N12          C13   1.349       .  A
C13          C14   1.385       .  A
C13          H16   1.082       .  S
C14          C15   1.386       .  A
C14        C1184   1.488       .  S
C15          H17   1.082       .  S
N18          N19   1.322       .  A
N18          C22   1.347       .  A
N19          C20   1.349       .  A
C20          C21   1.391       .  A
C20          H23   1.081       .  S
C21          C22   1.389       .  A
C21        C1164   1.499       .  S
C22          H24   1.082       .  S
O25         Cu33   2.037       .  S
O25          C35   1.281       .  A
O26         Cu33   2.033       .  S
O26          C36   1.281       .  A
O27         Cu33   2.016       .  S
O27          C37   1.278       .  A
O28         Cu33   2.009       .  S
O28          C38   1.277       .  A
O29         Cu34   2.021       .  S
O29          C38   1.279       .  A
O30         Cu34   2.025       .  S
O30          C37   1.280       .  A
O31         Cu34   2.022       .  S
O31          C36   1.279       .  A
O32         Cu34   2.017       .  S
O32          C35   1.278       .  A
Cu33        Cu34   2.369       .  S
C35        C1137   1.490       .  S
C36        C1154   1.493       .  S
C37        C1187   1.496       .  S
C38        C1147   1.484       .  S
N39          N40   1.323       .  A
N39          C43   1.347       .  A
N39         Cu47   2.077       .  S
N40          C41   1.348       .  A
N40         Cu46   2.100       .  S
C41          C42   1.390       .  A
C41          H44   1.082       .  S
C42          C43   1.385       .  A
C42        C1117   1.492       .  S
C43          H45   1.082       .  S
Cu46         N49   2.100       .  S
Cu47         N57   2.077       .  S
Cu48         N50   2.088       .  S
Cu48         N56   2.087       .  S
N49          N50   1.324       .  A
N49          C53   1.350       .  A
N50          C51   1.349       .  A
C51          C52   1.384       .  A
C51          H54   1.082       .  S
C52          C53   1.387       .  A
C52        C1157   1.488       .  S
C53          H55   1.082       .  S
N56          N57   1.322       .  A
N56          C60   1.346       .  A
N57          C58   1.347       .  A
C58          C59   1.386       .  A
C58          H61   1.082       .  S
C59          C60   1.387       .  A
C59        C1127   1.489       .  S
C60          H62   1.082       .  S
N63          N64   1.323       .  A
N63          C67   1.349       .  A
N63         Cu71   2.087       .  S
N64          C65   1.345       .  A
N64         Cu70   2.086       .  S
C65          C66   1.386       .  A
C65          H68   1.082       .  S
C66          C67   1.388       .  A
C66        C1094   1.490       .  S
C67          H69   1.082       .  S
Cu70         N73   2.085       .  S
Cu71         N81   2.086       .  S
Cu72         N74   2.066       .  S
Cu72         N80   2.066       .  S
N73          N74   1.322       .  A
N73          C77   1.348       .  A
N74          C75   1.345       .  A
C75          C76   1.380       .  A
C75          H78   1.082       .  S
C76          C77   1.386       .  A
C76        C1144   1.478       .  S
C77          H79   1.082       .  S
N80          N81   1.321       .  A
N80          C84   1.343       .  A
N81          C82   1.346       .  A
C82          C83   1.390       .  A
C82          H85   1.082       .  S
C83          C84   1.385       .  A
C83        C1104   1.490       .  S
C84          H86   1.082       .  S
N87          N88   1.321       .  A
N87          C91   1.346       .  A
N87         Cu95   2.070       .  S
N88          C89   1.346       .  A
N88         Cu94   2.088       .  S
C89          C90   1.388       .  A
C89          H92   1.082       .  S
C90          C91   1.385       .  A
C90        C1074   1.488       .  S
C91          H93   1.082       .  S
Cu94         N97   2.089       .  S
Cu95        N105   2.070       .  S
Cu96         N98   2.108       .  S
Cu96        N104   2.107       .  S
N97          N98   1.325       .  A
N97         C101   1.349       .  A
N98          C99   1.351       .  A
C99         C100   1.388       .  A
C99         H102   1.082       .  S
C100        C101   1.383       .  A
C100       C1134   1.489       .  S
C101        H103   1.082       .  S
N104        N105   1.324       .  A
N104        C108   1.351       .  A
N105        C106   1.345       .  A
C106        C107   1.381       .  A
C106        H109   1.082       .  S
C107        C108   1.390       .  A
C107       C1084   1.488       .  S
C108        H110   1.082       .  S
N111        N112   1.322       .  A
N111        C115   1.347       .  A
N111       Cu119   2.093       .  S
N112        C113   1.349       .  A
N112       Cu118   2.099       .  S
C113        C114   1.394       .  A
C113        H116   1.081       .  S
C114        C115   1.392       .  A
C114       C1044   1.508       .  S
C115        H117   1.081       .  S
Cu118       N121   2.099       .  S
Cu119       N129   2.093       .  S
Cu120       N122   2.073       .  S
Cu120       N128   2.073       .  S
N121        N122   1.323       .  A
N121        C125   1.350       .  A
N122        C123   1.346       .  A
C123        C124   1.382       .  A
C123        H126   1.082       .  S
C124        C125   1.389       .  A
C124       C1064   1.486       .  S
C125        H127   1.082       .  S
N128        N129   1.322       .  A
N128        C132   1.346       .  A
N129        C130   1.348       .  A
C130        C131   1.389       .  A
C130        H133   1.082       .  S
C131        C132   1.385       .  A
C131       C1057   1.489       .  S
C132        H134   1.082       .  S
O135       Cu143   2.021       .  S
O135        C145   1.279       .  A
O136       Cu143   2.022       .  S
O136        C146   1.279       .  A
O137       Cu143   2.007       .  S
O137        C147   1.278       .  A
O138       Cu143   2.019       .  S
O138        C148   1.278       .  A
O139       Cu144   2.007       .  S
O139        C148   1.277       .  A
O140       Cu144   2.009       .  S
O140        C147   1.277       .  A
O141       Cu144   2.008       .  S
O141        C146   1.278       .  A
O142       Cu144   2.011       .  S
O142        C145   1.278       .  A
Cu143      Cu144   2.372       .  S
C145       C1024   1.486       .  S
C146       C1067   1.492       .  S
C147       C1014   1.476       .  S
C148       C1034   1.476       .  S
N149        N150   1.323       .  A
N149        C153   1.344       .  A
N149       Cu157   2.084       .  S
N150        C151   1.349       .  A
N150       Cu156   2.092       .  S
C151        C152   1.391       .  A
C151        H154   1.081       .  S
C152        C153   1.387       .  A
C152        C997   1.497       .  S
C153        H155   1.082       .  S
Cu156       N159   2.092       .  S
Cu157       N167   2.085       .  S
Cu158       N160   2.073       .  S
Cu158       N166   2.073       .  S
N159        N160   1.323       .  A
N159        C163   1.348       .  A
N160        C161   1.345       .  A
C161        C162   1.383       .  A
C161        H164   1.082       .  S
C162        C163   1.387       .  A
C162       C1037   1.484       .  S
C163        H165   1.082       .  S
N166        N167   1.322       .  A
N166        C170   1.345       .  A
N167        C168   1.348       .  A
C168        C169   1.386       .  A
C168        H171   1.082       .  S
C169        C170   1.382       .  A
C169       C1007   1.480       .  S
C170        H172   1.082       .  S
N173        N174   1.322       .  A
N173        C177   1.347       .  A
N173       Cu181   2.095       .  S
N174        C175   1.346       .  A
N174       Cu180   2.083       .  S
C175        C176   1.389       .  A
C175        H178   1.081       .  S
C176        C177   1.392       .  A
C176        C977   1.500       .  S
C177        H179   1.081       .  S
Cu180       N183   2.084       .  S
Cu181       N191   2.095       .  S
Cu182       N184   2.063       .  S
Cu182       N190   2.063       .  S
N183        N184   1.322       .  A
N183        C187   1.348       .  A
N184        C185   1.344       .  A
C185        C186   1.380       .  A
C185        H188   1.082       .  S
C186        C187   1.385       .  A
C186       C1027   1.477       .  S
C187        H189   1.082       .  S
N190        N191   1.322       .  A
N190        C194   1.342       .  A
N191        C192   1.350       .  A
C192        C193   1.390       .  A
C192        H195   1.082       .  S
C193        C194   1.381       .  A
C193        C987   1.487       .  S
C194        H196   1.082       .  S
N197        N198   1.320       .  A
N197        C201   1.345       .  A
N197       Cu205   2.086       .  S
N198        C199   1.346       .  A
N198       Cu204   2.080       .  S
C199        C200   1.391       .  A
C199        H202   1.080       .  S
C200        C201   1.393       .  A
C200        C954   1.502       .  S
C201        H203   1.081       .  S
Cu204       N207   2.082       .  S
Cu205       N215   2.085       .  S
Cu206       N208   2.074       .  S
Cu206       N214   2.072       .  S
N207        N208   1.324       .  A
N207        C211   1.347       .  A
N208        C209   1.343       .  A
C209        C210   1.381       .  A
C209        H212   1.082       .  S
C210        C211   1.384       .  A
C210       C1017   1.478       .  S
C211        H213   1.082       .  S
N214        N215   1.319       .  A
N214        C218   1.346       .  A
N215        C216   1.345       .  A
C216        C217   1.392       .  A
C216        H219   1.081       .  S
C217        C218   1.390       .  A
C217        C964   1.499       .  S
C218        H220   1.081       .  S
N221        N222   1.323       .  A
N221        C225   1.349       .  A
N221       Cu229   2.093   1_455  S
N222        C223   1.345       .  A
N222       Cu228   2.074       .  S
C223        C224   1.382       .  A
C223        H226   1.082       .  S
C224        C225   1.387       .  A
C224        C924   1.483       .  S
C225        H227   1.082       .  S
Cu228       N231   2.075   1_455  S
Cu229       N239   2.093       .  S
Cu230       N232   2.074       .  S
Cu230       N238   2.074       .  S
N231        N232   1.322       .  A
N231        C235   1.346       .  A
N232        C233   1.345       .  A
C233        C234   1.382       .  A
C233        H236   1.082       .  S
C234        C235   1.383       .  A
C234        C944   1.477       .  S
C235        H237   1.082   1_655  S
N238        N239   1.321       .  A
N238        C242   1.345       .  A
N239        C240   1.346       .  A
C240        C241   1.392       .  A
C240        H243   1.081       .  S
C241        C242   1.387       .  A
C241        C934   1.497       .  S
C242        H244   1.081       .  S
O245       Cu253   2.006       .  S
O245        C255   1.277   1_565  A
O246       Cu253   2.013   1_455  S
O246        C256   1.278       .  A
O247       Cu253   2.017   1_545  S
O247        C257   1.277       .  A
O248       Cu253   2.013       .  S
O248        C258   1.278       .  A
O249       Cu254   2.009       .  S
O249        C258   1.278       .  A
O250       Cu254   2.012   1_545  S
O250        C257   1.276       .  A
O251       Cu254   2.005   1_455  S
O251        C256   1.277       .  A
O252       Cu254   2.013   1_545  S
O252        C255   1.278       .  A
Cu253      Cu254   2.365       .  S
C255        C894   1.482       .  S
C256        C914   1.483       .  S
C257        C904   1.511       .  S
C258        C947   1.478       .  S
N259        N260   1.322       .  A
N259        C263   1.350       .  A
N259       Cu267   2.096   1_545  S
N260        C261   1.345       .  A
N260       Cu266   2.073       .  S
C261        C262   1.384       .  A
C261        H264   1.082       .  S
C262        C263   1.390       .  A
C262        C874   1.490       .  S
C263        H265   1.082       .  S
Cu266       N269   2.073   1_545  S
Cu267       N277   2.096       .  S
Cu268       N270   2.078       .  S
Cu268       N276   2.079       .  S
N269        N270   1.323       .  A
N269        C273   1.345       .  A
N270        C271   1.347       .  A
C271        C272   1.383       .  A
C271        H274   1.082       .  S
C272        C273   1.381       .  A
C272        C917   1.475       .  S
C273        H275   1.082   1_565  S
N276        N277   1.322       .  A
N276        C280   1.347       .  A
N277        C278   1.346       .  A
C278        C279   1.391       .  A
C278        H281   1.081       .  S
C279        C280   1.388       .  A
C279        C884   1.498       .  S
C280        H282   1.081       .  S
N283        N284   1.318       .  A
N283        C287   1.344       .  A
N283       Cu291   2.072       .  S
N284        C285   1.346       .  A
N284       Cu290   2.080       .  S
C285        C286   1.392       .  A
C285        H288   1.080       .  S
C286        C287   1.391       .  A
C286        C854   1.500       .  S
C287        H289   1.081       .  S
Cu290       N293   2.083       .  S
Cu291       N301   2.072   1_655  S
Cu292       N294   2.091       .  S
Cu292       N300   2.089       .  S
N293        N294   1.324   1_655  A
N293        C297   1.345       .  A
N294        C295   1.348       .  A
C295        C296   1.388       .  A
C295        H298   1.082       .  S
C296        C297   1.385   1_455  A
C296        C907   1.490       .  S
C297        H299   1.082       .  S
N300        N301   1.320       .  A
N300        C304   1.348       .  A
N301        C302   1.343       .  A
C302        C303   1.389       .  A
C302        H305   1.081       .  S
C303        C304   1.393       .  A
C303        C864   1.500       .  S
C304        H306   1.081       .  S
N307        N308   1.323       .  A
N307        C311   1.348       .  A
N307       Cu315   2.089       .  S
N308        C309   1.345       .  A
N308       Cu314   2.076       .  S
C309        C310   1.383       .  A
C309        H312   1.082       .  S
C310        C311   1.386       .  A
C310        C834   1.485       .  S
C311        H313   1.082       .  S
Cu314       N317   2.075       .  S
Cu315       N325   2.089   1_565  S
Cu316       N318   2.071       .  S
Cu316       N324   2.071       .  S
N317        N318   1.322   1_565  A
N317        C321   1.345       .  A
N318        C319   1.346       .  A
C319        C320   1.382       .  A
C319        H322   1.082       .  S
C320        C321   1.382   1_545  A
C320        C897   1.475       .  S
C321        H323   1.082       .  S
N324        N325   1.321       .  A
N324        C328   1.343       .  A
N325        C326   1.347       .  A
C326        C327   1.391       .  A
C326        H329   1.081       .  S
C327        C328   1.386       .  A
C327        C844   1.494       .  S
C328        H330   1.081       .  S
N331        N332   1.321       .  A
N331        C335   1.345       .  A
N331       Cu339   2.072       .  S
N332        C333   1.348       .  A
N332       Cu338   2.092       .  S
C333        C334   1.391       .  A
C333        H336   1.082       .  S
C334        C335   1.386       .  A
C334        C817   1.494       .  S
C335        H337   1.082       .  S
Cu338       N341   2.092       .  S
Cu339       N349   2.073   1_455  S
Cu340       N342   2.097   1_655  S
Cu340       N348   2.096       .  S
N341        N342   1.324       .  A
N341        C345   1.348       .  A
N342        C343   1.348       .  A
C343        C344   1.390       .  A
C343        H346   1.082   1_455  S
C344        C345   1.388       .  A
C344        C824   1.497       .  S
C345        H347   1.082       .  S
N348        N349   1.322       .  A
N348        C352   1.349       .  A
N349        C350   1.345       .  A
C350        C351   1.385       .  A
C350        H353   1.082       .  S
C351        C352   1.392       .  A
C351        C804   1.495       .  S
C352        H354   1.082       .  S
O355       Cu363   2.037       .  S
O355        C365   1.282       .  A
O356       Cu363   2.035   1_565  S
O356        C366   1.280       .  A
O357       Cu363   2.016       .  S
O357        C367   1.277   1_545  A
O358       Cu363   2.025   1_655  S
O358        C368   1.278       .  A
O359       Cu364   2.032       .  S
O359        C368   1.280       .  A
O360       Cu364   2.037   1_465  S
O360        C367   1.281       .  A
O361       Cu364   2.024   1_565  S
O361        C366   1.278   1_655  A
O362       Cu364   2.018   1_455  S
O362        C365   1.277       .  A
Cu363      Cu364   2.355   1_455  S
C365        C827   1.490       .  S
C366        C784   1.516       .  S
C367        C774   1.490       .  S
C368        C794   1.513       .  S
N369        N370   1.323       .  A
N369        C373   1.346       .  A
N369       Cu377   2.081       .  S
N370        C371   1.348       .  A
N370       Cu376   2.088       .  S
C371        C372   1.387       .  A
C371        H374   1.082       .  S
C372        C373   1.385       .  A
C372        C754   1.489       .  S
C373        H375   1.082       .  S
Cu376       N379   2.088       .  S
Cu377       N387   2.080       .  S
Cu378       N380   2.088       .  S
Cu378       N386   2.086       .  S
N379        N380   1.323   1_565  A
N379        C383   1.349       .  A
N380        C381   1.348       .  A
C381        C382   1.385   1_545  A
C381        H384   1.082       .  S
C382        C383   1.387       .  A
C382        C797   1.489       .  S
C383        H385   1.082       .  S
N386        N387   1.321   1_545  A
N386        C390   1.345       .  A
N387        C388   1.347       .  A
C388        C389   1.390   1_565  A
C388        H391   1.081       .  S
C389        C390   1.391       .  A
C389        C764   1.499       .  S
C390        H392   1.081       .  S
N393        N394   1.323       .  A
N393        C397   1.348       .  A
N393       Cu401   2.087   1_655  S
N394        C395   1.350       .  A
N394       Cu400   2.104       .  S
C395        C396   1.392       .  A
C395        H398   1.082       .  S
C396        C397   1.388       .  A
C396        C744   1.500       .  S
C397        H399   1.082       .  S
Cu400       N403   2.104       .  S
Cu401       N411   2.087       .  S
Cu402       N404   2.090       .  S
Cu402       N410   2.090       .  S
N403        N404   1.324   1_655  A
N403        C407   1.349       .  A
N404        C405   1.350       .  A
C405        C406   1.388       .  A
C405        H408   1.082       .  S
C406        C407   1.390   1_455  A
C406        C787   1.498       .  S
C407        H409   1.082       .  S
N410        N411   1.323       .  A
N410        C414   1.348       .  A
N411        C412   1.347       .  A
C412        C413   1.386       .  A
C412        H415   1.082       .  S
C413        C414   1.387       .  A
C413        C737   1.490       .  S
C414        H416   1.082       .  S
N417        N418   1.324       .  A
N417        C421   1.348       .  A
N417       Cu425   2.094       .  S
N418        C419   1.348       .  A
N418       Cu424   2.091       .  S
C419        C420   1.389       .  A
C419        H422   1.082       .  S
C420        C421   1.389       .  A
C420        C724   1.497       .  S
C421        H423   1.082       .  S
Cu424       N427   2.091       .  S
Cu425       N435   2.094   1_565  S
Cu426       N428   2.083       .  S
Cu426       N434   2.083       .  S
N427        N428   1.322   1_565  A
N427        C431   1.349       .  A
N428        C429   1.346       .  A
C429        C430   1.387   1_545  A
C429        H432   1.082       .  S
C430        C431   1.390       .  A
C430        C777   1.494       .  S
C431        H433   1.082       .  S
N434        N435   1.323       .  A
N434        C438   1.346       .  A
N435        C436   1.350       .  A
C436        C437   1.388       .  A
C436        H439   1.082       .  S
C437        C438   1.384       .  A
C437        C714   1.487       .  S
C438        H440   1.082       .  S
N441        C446   1.355       .  A
N441        C445   1.355       .  A
N441        H473   1.039       .  S
N442        C449   1.351       .  A
N442        C450   1.353   1_554  A
N443        C448   1.353       .  A
N443        C447   1.353       .  A
N443        H474   1.040       .  S
N444        C451   1.351       .  A
N444        C452   1.352   1_554  A
C445        C453   1.388       .  A
C445        C461   1.419       .  A
C446        C462   1.419       .  A
C446        C454   1.386       .  A
C447        C455   1.387       .  A
C447        C464   1.416       .  A
C448        C463   1.416       .  A
C448        C456   1.387       .  A
C449        C461   1.414       .  A
C449        C457   1.386       .  A
C450        C464   1.416       .  A
C450        C458   1.386       .  A
C451        C459   1.386       .  A
C451        C462   1.414       .  A
C452        C460   1.386       .  A
C452        C463   1.416       .  A
C453        C454   1.377       .  A
C453        H465   1.082       .  S
C454        H466   1.082       .  S
C455        C456   1.378       .  A
C455        H467   1.082       .  S
C456        H468   1.082       .  S
C457        C458   1.376   1_554  A
C457        H469   1.082       .  S
C458        H470   1.082       .  S
C459        C460   1.375   1_554  A
C459        H471   1.082       .  S
C460        H472   1.082       .  S
C461       C1077   1.493       .  S
C462        C814   1.494       .  S
C463        C867   1.499       .  S
C464        C994   1.500       .  S
N475        C480   1.355       .  A
N475        C479   1.354       .  A
N475        H507   1.039       .  S
N476        C483   1.352       .  A
N476        C484   1.354   1_554  A
N477        C482   1.352       .  A
N477        C481   1.352       .  A
N477        H508   1.040       .  S
N478        C485   1.350       .  A
N478        C486   1.351   1_554  A
C479        C487   1.387       .  A
C479        C495   1.418       .  A
C480        C496   1.420       .  A
C480        C488   1.387       .  A
C481        C489   1.387       .  A
C481        C498   1.415       .  A
C482        C497   1.415       .  A
C482        C490   1.387       .  A
C483        C495   1.417       .  A
C483        C491   1.386       .  A
C484        C498   1.418       .  A
C484        C492   1.386       .  A
C485        C493   1.386       .  A
C485        C496   1.414       .  A
C486        C494   1.386       .  A
C486        C497   1.414       .  A
C487        C488   1.379       .  A
C487        H499   1.082       .  S
C488        H500   1.082       .  S
C489        C490   1.378       .  A
C489        H501   1.082       .  S
C490        H502   1.082       .  S
C491        C492   1.377   1_554  A
C491        H503   1.082       .  S
C492        H504   1.082       .  S
C493        C494   1.376   1_554  A
C493        H505   1.082       .  S
C494        H506   1.082       .  S
C495       C1167   1.497       .  S
C496        C767   1.497       .  S
C497        C847   1.495       .  S
C498        C974   1.501       .  S
N509        C514   1.357       .  A
N509        C513   1.356       .  A
N509        H541   1.037       .  S
N510        C517   1.352   1_556  A
N510        C518   1.354       .  A
N511        C516   1.352       .  A
N511        C515   1.353       .  A
N511        H542   1.039       .  S
N512        C519   1.353   1_556  A
N512        C520   1.354       .  A
C513        C521   1.387       .  A
C513        C529   1.422       .  A
C514        C530   1.422       .  A
C514        C522   1.387       .  A
C515        C523   1.387       .  A
C515        C532   1.417       .  A
C516        C531   1.416       .  A
C516        C524   1.387       .  A
C517        C529   1.417       .  A
C517        C525   1.387       .  A
C518        C532   1.418       .  A
C518        C526   1.386       .  A
C519        C527   1.386       .  A
C519        C530   1.418       .  A
C520        C528   1.386       .  A
C520        C531   1.419       .  A
C521        C522   1.376       .  A
C521        H533   1.082       .  S
C522        H534   1.082       .  S
C523        C524   1.378       .  A
C523        H535   1.082       .  S
C524        H536   1.082       .  S
C525        C526   1.375   1_554  A
C525        H537   1.082       .  S
C526        H538   1.082       .  S
C527        C528   1.375   1_554  A
C527        H539   1.082       .  S
C528        H540   1.082       .  S
C529       C1114   1.497       .  S
C530        C747   1.500       .  S
C531        C937   1.501       .  S
C532        C957   1.501       .  S
N543        C548   1.353       .  A
N543        C547   1.355       .  A
N543        H575   1.039       .  S
N544        C551   1.352   1_556  A
N544        C552   1.352       .  A
N545        C550   1.355       .  A
N545        C549   1.355       .  A
N545        H576   1.040       .  S
N546        C553   1.353   1_556  A
N546        C554   1.355       .  A
C547        C555   1.386       .  A
C547        C563   1.417       .  A
C548        C564   1.418       .  A
C548        C556   1.388       .  A
C549        C557   1.387       .  A
C549        C566   1.420       .  A
C550        C565   1.420       .  A
C550        C558   1.387       .  A
C551        C563   1.414       .  A
C551        C559   1.385       .  A
C552        C566   1.417       .  A
C552        C560   1.387       .  A
C553        C561   1.386       .  A
C553        C564   1.417       .  A
C554        C562   1.387       .  A
C554        C565   1.420       .  A
C555        C556   1.378       .  A
C555        H567   1.082       .  S
C556        H568   1.082       .  S
C557        C558   1.380       .  A
C557        H569   1.082       .  S
C558        H570   1.082       .  S
C559        C560   1.374   1_554  A
C559        H571   1.082       .  S
C560        H572   1.082       .  S
C561        C562   1.377   1_554  A
C561        H573   1.082       .  S
C562        H574   1.082       .  S
C563        C727   1.496       .  S
C564       C1097   1.494       .  S
C565       C1047   1.507       .  S
C566        C887   1.501       .  S
N577        C582   1.353       .  A
N577        C581   1.352       .  A
N577        H609   1.038       .  S
N578        C585   1.351       .  A
N578        C586   1.352       .  A
N579        C584   1.353       .  A
N579        C583   1.355       .  A
N579        H610   1.039       .  S
N580        C587   1.353       .  A
N580        C588   1.353       .  A
C581        C589   1.387       .  A
C581        C597   1.416       .  A
C582        C598   1.415       .  A
C582        C590   1.386       .  A
C583        C591   1.386       .  A
C583        C600   1.417       .  A
C584        C599   1.418       .  A
C584        C592   1.387       .  A
C585        C597   1.414       .  A
C585        C593   1.386       .  A
C586        C600   1.414       .  A
C586        C594   1.386       .  A
C587        C595   1.386       .  A
C587        C598   1.417       .  A
C588        C596   1.386       .  A
C588        C599   1.417       .  A
C589        C590   1.377       .  A
C589        H601   1.082       .  S
C590        H602   1.082       .  S
C591        C592   1.378       .  A
C591        H603   1.082       .  S
C592        H604   1.082       .  S
C593        C594   1.373       .  A
C593        H605   1.082       .  S
C594        H606   1.082       .  S
C595        C596   1.375       .  A
C595        H607   1.082       .  S
C596        H608   1.082       .  S
C597        C927   1.489       .  S
C598       C1004   1.495       .  S
C599       C1087   1.497       .  S
C600        C734   1.497       .  S
N611        C616   1.354       .  A
N611        C615   1.355       .  A
N611        H643   1.037       .  S
N612        C619   1.353       .  A
N612        C620   1.352       .  A
N613        C618   1.355       .  A
N613        C617   1.355       .  A
N613        H644   1.039       .  S
N614        C621   1.353       .  A
N614        C622   1.354       .  A
C615        C623   1.387       .  A
C615        C631   1.418       .  A
C616        C632   1.418       .  A
C616        C624   1.388       .  A
C617        C625   1.387       .  A
C617        C634   1.419       .  A
C618        C633   1.418       .  A
C618        C626   1.386       .  A
C619        C631   1.415       .  A
C619        C627   1.386       .  A
C620        C634   1.416       .  A
C620        C628   1.387       .  A
C621        C629   1.387       .  A
C621        C632   1.418       .  A
C622        C630   1.386       .  A
C622        C633   1.417       .  A
C623        C624   1.375       .  A
C623        H635   1.082       .  S
C624        H636   1.082       .  S
C625        C626   1.377       .  A
C625        H637   1.082       .  S
C626        H638   1.082       .  S
C627        C628   1.375       .  A
C627        H639   1.082       .  S
C628        H640   1.082       .  S
C629        C630   1.374       .  A
C629        H641   1.082       .  S
C630        H642   1.082       .  S
C631        C877   1.495       .  S
C632        C984   1.493       .  S
C633       C1174   1.500       .  S
C634        C717   1.496       .  S
N645        C650   1.352       .  A
N645        C649   1.352       .  A
N645        H677   1.041       .  S
N646        C653   1.353       .  A
N646        C654   1.351       .  A
N647        C652   1.355       .  A
N647        C651   1.356       .  A
N647        H678   1.038       .  S
N648        C655   1.352       .  A
N648        C656   1.351       .  A
C649        C657   1.387       .  A
C649        C665   1.415       .  A
C650        C666   1.415       .  A
C650        C658   1.387       .  A
C651        C659   1.387       .  A
C651        C668   1.420       .  A
C652        C667   1.421       .  A
C652        C660   1.388       .  A
C653        C665   1.417       .  A
C653        C661   1.386       .  A
C654        C668   1.415       .  A
C654        C662   1.386       .  A
C655        C663   1.385       .  A
C655        C666   1.415       .  A
C656        C664   1.387       .  A
C656        C667   1.415       .  A
C657        C658   1.378       .  A
C657        H669   1.082       .  S
C658        H670   1.082       .  S
C659        C660   1.378       .  A
C659        H671   1.082       .  S
C660        H672   1.082       .  S
C661        C662   1.376       .  A
C661        H673   1.082       .  S
C662        H674   1.082       .  S
C663        C664   1.374       .  A
C663        H675   1.082       .  S
C664        H676   1.082       .  S
C665        C857   1.501       .  S
C666        C967   1.499       .  S
C667       C1124   1.495       .  S
C668        C807   1.495       .  S
N679        C684   1.355       .  A
N679        C683   1.355       .  A
N679        H711   1.037       .  S
N680        C687   1.351       .  A
N680        C688   1.352       .  A
N681        C686   1.353       .  A
N681        C685   1.354       .  A
N681        H712   1.038       .  S
N682        C689   1.353       .  A
N682        C690   1.353       .  A
C683        C691   1.387       .  A
C683        C699   1.420       .  A
C684        C700   1.420       .  A
C684        C692   1.387       .  A
C685        C693   1.387       .  A
C685        C702   1.417       .  A
C686        C701   1.416       .  A
C686        C694   1.387       .  A
C687        C699   1.415       .  A
C687        C695   1.387       .  A
C688        C702   1.416       .  A
C688        C696   1.386       .  A
C689        C697   1.387       .  A
C689        C700   1.416       .  A
C690        C698   1.386       .  A
C690        C701   1.415       .  A
C691        C692   1.377       .  A
C691        H703   1.082       .  S
C692        H704   1.082       .  S
C693        C694   1.376       .  A
C693        H705   1.082       .  S
C694        H706   1.082       .  S
C695        C696   1.373       .  A
C695        H707   1.082       .  S
C696        H708   1.082       .  S
C697        C698   1.372       .  A
C697        H709   1.082       .  S
C698        H710   1.082       .  S
C699       C1054   1.494       .  S
C700        C837   1.495       .  S
C701        C757   1.492       .  S
C702       C1107   1.498       .  S
C713        C714   1.413       .  A
C713        C718   1.410       .  A
C713       Br720   1.930       .  S
C714        C715   1.412       .  A
C715        C716   1.411       .  A
C715       Br722   1.928   1_545  S
C716        C717   1.411       .  A
C716       Br721   1.930       .  S
C717        C718   1.409       .  A
C718       Br719   1.930       .  S
C723        C724   1.419       .  A
C723        C728   1.411       .  A
C723       Br730   1.931       .  S
C724        C725   1.417       .  A
C725        C726   1.411       .  A
C725       Br732   1.930       .  S
C726        C727   1.407       .  A
C726       Br731   1.930       .  S
C727        C728   1.408       .  A
C728       Br729   1.931       .  S
C733        C734   1.410       .  A
C733        C738   1.410       .  A
C733       Br740   1.931       .  S
C734        C735   1.410       .  A
C735        C736   1.412       .  A
C735       Br742   1.930       .  S
C736        C737   1.414       .  A
C736       Br741   1.930       .  S
C737        C738   1.414       .  A
C738       Br739   1.930       .  S
C743        C744   1.416       .  A
C743        C748   1.412       .  A
C743       Br750   1.930       .  S
C744        C745   1.419       .  A
C745        C746   1.413       .  A
C745       Br752   1.930       .  S
C746        C747   1.408       .  A
C746       Br751   1.930       .  S
C747        C748   1.410       .  A
C748       Br749   1.931       .  S
C753        C754   1.416       .  A
C753        C758   1.409       .  A
C753       Br760   1.931       .  S
C754        C755   1.415       .  A
C755        C756   1.410       .  A
C755       Br762   1.929       .  S
C756        C757   1.408       .  A
C756       Br761   1.930       .  S
C757        C758   1.408       .  A
C758       Br759   1.932       .  S
C763        C764   1.421       .  A
C763        C768   1.412       .  A
C763       Br770   1.931       .  S
C764        C765   1.418       .  A
C765        C766   1.409       .  A
C765       Br772   1.933       .  S
C766        C767   1.409       .  A
C766       Br771   1.933       .  S
C767        C768   1.409       .  A
C768       Br769   1.933       .  S
C773        C774   1.411       .  A
C773        C778   1.413       .  A
C773       Br780   1.926       .  S
C774        C775   1.412   1_565  A
C775        C776   1.412       .  A
C775       Br782   1.931       .  S
C776        C777   1.415   1_545  A
C776       Br781   1.932       .  S
C777        C778   1.415       .  A
C778       Br779   1.931       .  S
C783        C784   1.427       .  A
C783        C788   1.415       .  A
C783       Br790   1.936       .  S
C784        C785   1.426   1_455  A
C785        C786   1.418       .  A
C785       Br792   1.935       .  S
C786        C787   1.411   1_655  A
C786       Br791   1.933       .  S
C787        C788   1.409       .  A
C788       Br789   1.935       .  S
C793        C794   1.427       .  A
C793        C798   1.415       .  A
C793       Br800   1.934       .  S
C794        C795   1.426   1_545  A
C795        C796   1.415       .  A
C795       Br802   1.935       .  S
C796        C797   1.408       .  A
C796       Br801   1.934       .  S
C797        C798   1.406   1_565  A
C798       Br799   1.934       .  S
C803        C804   1.418       .  A
C803        C808   1.411       .  A
C803       Br810   1.931       .  S
C804        C805   1.416       .  A
C805        C806   1.411       .  A
C805       Br812   1.931       .  S
C806        C807   1.409       .  A
C806       Br811   1.931       .  S
C807        C808   1.407       .  A
C808       Br809   1.930       .  S
C813        C814   1.408       .  A
C813        C818   1.409       .  A
C813       Br820   1.932       .  S
C814        C815   1.407       .  A
C815        C816   1.412       .  A
C815       Br822   1.929       .  S
C816        C817   1.418       .  A
C816       Br821   1.931       .  S
C817        C818   1.417       .  A
C818       Br819   1.931       .  S
C823        C824   1.416   1_655  A
C823        C828   1.412       .  A
C823       Br830   1.932       .  S
C824        C825   1.417       .  A
C825        C826   1.414       .  A
C825       Br832   1.931       .  S
C826        C827   1.412       .  A
C826       Br831   1.931       .  S
C827        C828   1.409   1_455  A
C828       Br829   1.927       .  S
C833        C834   1.412       .  A
C833        C838   1.410       .  A
C833       Br840   1.930       .  S
C834        C835   1.413       .  A
C835        C836   1.409       .  A
C835       Br842   1.931       .  S
C836        C837   1.410       .  A
C836       Br841   1.929       .  S
C837        C838   1.410       .  A
C838       Br839   1.930       .  S
C843        C844   1.418       .  A
C843        C848   1.409       .  A
C843       Br850   1.932       .  S
C844        C845   1.419       .  A
C845        C846   1.409       .  A
C845       Br852   1.932       .  S
C846        C847   1.408       .  A
C846       Br851   1.933       .  S
C847        C848   1.410       .  A
C848       Br849   1.931       .  S
C853        C854   1.419       .  A
C853        C858   1.409       .  A
C853       Br860   1.934       .  S
C854        C855   1.421       .  A
C855        C856   1.411       .  A
C855       Br862   1.932       .  S
C856        C857   1.410       .  A
C856       Br861   1.934       .  S
C857        C858   1.411       .  A
C858       Br859   1.931       .  S
C863        C864   1.419       .  A
C863        C868   1.408       .  A
C863       Br870   1.933       .  S
C864        C865   1.420       .  A
C865        C866   1.411       .  A
C865       Br872   1.931       .  S
C866        C867   1.410       .  A
C866       Br871   1.932       .  S
C867        C868   1.410       .  A
C868       Br869   1.932       .  S
C873        C874   1.415       .  A
C873        C878   1.411       .  A
C873       Br880   1.931       .  S
C874        C875   1.414       .  A
C875        C876   1.411       .  A
C875       Br882   1.929       .  S
C876        C877   1.409       .  A
C876       Br881   1.930       .  S
C877        C878   1.408       .  A
C878       Br879   1.929       .  S
C883        C884   1.419       .  A
C883        C888   1.413       .  A
C883       Br890   1.931       .  S
C884        C885   1.417       .  A
C885        C886   1.408       .  A
C885       Br892   1.933       .  S
C886        C887   1.410       .  A
C886       Br891   1.931       .  S
C887        C888   1.412       .  A
C888       Br889   1.933       .  S
C893        C894   1.413       .  A
C893        C898   1.408       .  A
C893       Br900   1.929       .  S
C894        C895   1.414   1_545  A
C895        C896   1.408       .  A
C895       Br902   1.932       .  S
C896        C897   1.408   1_565  A
C896       Br901   1.931       .  S
C897        C898   1.406       .  A
C898       Br899   1.929       .  S
C903        C904   1.428       .  A
C903        C908   1.412       .  A
C903       Br910   1.938       .  S
C904        C905   1.428   1_655  A
C905        C906   1.413       .  A
C905       Br912   1.938       .  S
C906        C907   1.409       .  A
C906       Br911   1.936       .  S
C907        C908   1.408   1_455  A
C908       Br909   1.936       .  S
C913        C914   1.415       .  A
C913        C918   1.409       .  A
C913       Br920   1.932       .  S
C914        C915   1.414   1_565  A
C915        C916   1.408   1_545  A
C915       Br922   1.930       .  S
C916        C917   1.407       .  A
C916       Br921   1.930   1_565  S
C917        C918   1.406       .  A
C918       Br919   1.930       .  S
C923        C924   1.412       .  A
C923        C928   1.409       .  A
C923       Br930   1.929       .  S
C924        C925   1.413       .  A
C925        C926   1.408       .  A
C925       Br932   1.930       .  S
C926        C927   1.407       .  A
C926       Br931   1.930       .  S
C927        C928   1.408       .  A
C928       Br929   1.930       .  S
C933        C934   1.415       .  A
C933        C938   1.407       .  A
C933       Br940   1.933       .  S
C934        C935   1.420       .  A
C935        C936   1.413       .  A
C935       Br942   1.931       .  S
C936        C937   1.410       .  A
C936       Br941   1.931       .  S
C937        C938   1.412       .  A
C938       Br939   1.930       .  S
C943        C944   1.410       .  A
C943        C948   1.408       .  A
C943       Br950   1.931   1_655  S
C944        C945   1.408       .  A
C945        C946   1.408       .  A
C945       Br952   1.929       .  S
C946        C947   1.411       .  A
C946       Br951   1.931       .  S
C947        C948   1.411       .  A
C948       Br949   1.931   1_655  S
C953        C954   1.418       .  A
C953        C958   1.408       .  A
C953       Br960   1.933       .  S
C954        C955   1.423       .  A
C955        C956   1.413       .  A
C955       Br962   1.931       .  S
C956        C957   1.408       .  A
C956       Br961   1.932       .  S
C957        C958   1.409       .  A
C958       Br959   1.928       .  S
C963        C964   1.422       .  A
C963        C968   1.412       .  A
C963       Br970   1.931       .  S
C964        C965   1.417       .  A
C965        C966   1.406       .  A
C965       Br972   1.933       .  S
C966        C967   1.409       .  A
C966       Br971   1.930       .  S
C967        C968   1.410       .  A
C968       Br969   1.933       .  S
C973        C974   1.409       .  A
C973        C978   1.411       .  A
C973       Br980   1.932       .  S
C974        C975   1.412       .  A
C975        C976   1.410       .  A
C975       Br982   1.933       .  S
C976        C977   1.419       .  A
C976       Br981   1.933       .  S
C977        C978   1.420       .  A
C978       Br979   1.931       .  S
C983        C984   1.410       .  A
C983        C988   1.410       .  A
C983       Br990   1.930       .  S
C984        C985   1.407       .  A
C985        C986   1.408       .  A
C985       Br992   1.931       .  S
C986        C987   1.415       .  A
C986       Br991   1.931       .  S
C987        C988   1.414       .  A
C988       Br989   1.930       .  S
C993        C994   1.411       .  A
C993        C998   1.409       .  A
C993      Br1000   1.932       .  S
C994        C995   1.412       .  A
C995        C996   1.413       .  A
C995      Br1002   1.932       .  S
C996        C997   1.418       .  A
C996      Br1001   1.930       .  S
C997        C998   1.417       .  A
C998       Br999   1.933       .  S
C1003      C1004   1.411       .  A
C1003      C1008   1.410       .  A
C1003     Br1010   1.930       .  S
C1004      C1005   1.410       .  A
C1005      C1006   1.408       .  A
C1005     Br1012   1.928       .  S
C1006      C1007   1.410       .  A
C1006     Br1011   1.930       .  S
C1007      C1008   1.409       .  A
C1008     Br1009   1.928       .  S
C1013      C1014   1.411       .  A
C1013      C1018   1.407       .  A
C1013     Br1020   1.933       .  S
C1014      C1015   1.410       .  A
C1015      C1016   1.408       .  A
C1015     Br1022   1.931       .  S
C1016      C1017   1.411       .  A
C1016     Br1021   1.931       .  S
C1017      C1018   1.410       .  A
C1018     Br1019   1.930       .  S
C1023      C1024   1.415       .  A
C1023      C1028   1.410       .  A
C1023     Br1030   1.931       .  S
C1024      C1025   1.415       .  A
C1025      C1026   1.409       .  A
C1025     Br1032   1.932       .  S
C1026      C1027   1.408       .  A
C1026     Br1031   1.931       .  S
C1027      C1028   1.407       .  A
C1028     Br1029   1.930       .  S
C1033      C1034   1.409       .  A
C1033      C1038   1.407       .  A
C1033     Br1040   1.932       .  S
C1034      C1035   1.408       .  A
C1035      C1036   1.411       .  A
C1035     Br1042   1.929       .  S
C1036      C1037   1.412       .  A
C1036     Br1041   1.928       .  S
C1037      C1038   1.413       .  A
C1038     Br1039   1.932       .  S
C1043      C1044   1.421       .  A
C1043      C1048   1.413       .  A
C1043     Br1050   1.932       .  S
C1044      C1045   1.421       .  A
C1045      C1046   1.414       .  A
C1045     Br1052   1.931       .  S
C1046      C1047   1.411       .  A
C1046     Br1051   1.931       .  S
C1047      C1048   1.411       .  A
C1048     Br1049   1.933       .  S
C1053      C1054   1.409       .  A
C1053      C1058   1.409       .  A
C1053     Br1060   1.932       .  S
C1054      C1055   1.409       .  A
C1055      C1056   1.411       .  A
C1055     Br1062   1.929       .  S
C1056      C1057   1.415       .  A
C1056     Br1061   1.930       .  S
C1057      C1058   1.415       .  A
C1058     Br1059   1.931       .  S
C1063      C1064   1.410       .  A
C1063      C1068   1.410       .  A
C1063     Br1070   1.931       .  S
C1064      C1065   1.411       .  A
C1065      C1066   1.412       .  A
C1065     Br1072   1.931       .  S
C1066      C1067   1.417       .  A
C1066     Br1071   1.933       .  S
C1067      C1068   1.416       .  A
C1068     Br1069   1.934       .  S
C1073      C1074   1.416       .  A
C1073      C1078   1.411       .  A
C1073     Br1080   1.930       .  S
C1074      C1075   1.413       .  A
C1075      C1076   1.407       .  A
C1075     Br1082   1.931       .  S
C1076      C1077   1.408       .  A
C1076     Br1081   1.930       .  S
C1077      C1078   1.409       .  A
C1078     Br1079   1.930       .  S
C1083      C1084   1.413       .  A
C1083      C1088   1.410       .  A
C1083     Br1090   1.930       .  S
C1084      C1085   1.412       .  A
C1085      C1086   1.411       .  A
C1085     Br1092   1.929       .  S
C1086      C1087   1.412       .  A
C1086     Br1091   1.931       .  S
C1087      C1088   1.411       .  A
C1088     Br1089   1.931       .  S
C1093      C1094   1.416       .  A
C1093      C1098   1.412       .  A
C1093     Br1100   1.930       .  S
C1094      C1095   1.414       .  A
C1095      C1096   1.408       .  A
C1095     Br1102   1.931       .  S
C1096      C1097   1.408       .  A
C1096     Br1101   1.930       .  S
C1097      C1098   1.409       .  A
C1098     Br1099   1.930       .  S
C1103      C1104   1.417       .  A
C1103      C1108   1.410       .  A
C1103     Br1110   1.933       .  S
C1104      C1105   1.415       .  A
C1105      C1106   1.408       .  A
C1105     Br1112   1.932       .  S
C1106      C1107   1.411       .  A
C1106     Br1111   1.933       .  S
C1107      C1108   1.412       .  A
C1108     Br1109   1.932       .  S
C1113      C1114   1.409       .  A
C1113      C1118   1.413       .  A
C1113     Br1120   1.929       .  S
C1114      C1115   1.409       .  A
C1115      C1116   1.409       .  A
C1115     Br1122   1.931       .  S
C1116      C1117   1.414       .  A
C1116     Br1121   1.930       .  S
C1117      C1118   1.416       .  A
C1118     Br1119   1.930       .  S
C1123      C1124   1.410       .  A
C1123      C1128   1.409       .  A
C1123     Br1130   1.931       .  S
C1124      C1125   1.410       .  A
C1125      C1126   1.411       .  A
C1125     Br1132   1.930       .  S
C1126      C1127   1.414       .  A
C1126     Br1131   1.930       .  S
C1127      C1128   1.414       .  A
C1128     Br1129   1.932       .  S
C1133      C1134   1.411       .  A
C1133      C1138   1.414       .  A
C1133     Br1140   1.929       .  S
C1134      C1135   1.410       .  A
C1135      C1136   1.413       .  A
C1135     Br1142   1.929       .  S
C1136      C1137   1.413       .  A
C1136     Br1141   1.931       .  S
C1137      C1138   1.413       .  A
C1138     Br1139   1.929       .  S
C1143      C1144   1.407       .  A
C1143      C1148   1.409       .  A
C1143     Br1150   1.930       .  S
C1144      C1145   1.409       .  A
C1145      C1146   1.409       .  A
C1145     Br1152   1.930       .  S
C1146      C1147   1.413       .  A
C1146     Br1151   1.931       .  S
C1147      C1148   1.415       .  A
C1148     Br1149   1.932       .  S
C1153      C1154   1.413       .  A
C1153      C1158   1.414       .  A
C1153     Br1160   1.929       .  S
C1154      C1155   1.415       .  A
C1155      C1156   1.413       .  A
C1155     Br1162   1.931       .  S
C1156      C1157   1.410       .  A
C1156     Br1161   1.930       .  S
C1157      C1158   1.410       .  A
C1158     Br1159   1.929       .  S
C1163      C1164   1.419       .  A
C1163      C1168   1.412       .  A
C1163     Br1170   1.930       .  S
C1164      C1165   1.418       .  A
C1165      C1166   1.412       .  A
C1165     Br1172   1.931       .  S
C1166      C1167   1.408       .  A
C1166     Br1171   1.930       .  S
C1167      C1168   1.408       .  A
C1168     Br1169   1.931       .  S
C1173      C1174   1.410       .  A
C1173      C1178   1.411       .  A
C1173     Br1180   1.931       .  S
C1174      C1175   1.411       .  A
C1175      C1176   1.413       .  A
C1175     Br1182   1.930       .  S
C1176      C1177   1.415       .  A
C1176     Br1181   1.930       .  S
C1177      C1178   1.415       .  A
C1178     Br1179   1.930       .  S
C1183      C1184   1.409       .  A
C1183      C1188   1.413       .  A
C1183     Br1190   1.931       .  S
C1184      C1185   1.409       .  A
C1185      C1186   1.413       .  A
C1185     Br1192   1.931       .  S
C1186      C1187   1.418       .  A
C1186     Br1191   1.933       .  S
C1187      C1188   1.417       .  A
C1188     Br1189   1.932       .  S
