geometry optimzed in LAMMPS
_audit_creation_date              2020-11-30 
_audit_creation_method            'lammps2cif' 
_symmetry_space_group_name_H-M    'P1' 
_symmetry_Int_Tables_number       1 
_symmetry_cell_setting            triclinic 
loop_ 
_symmetry_equiv_pos_as_xyz 
  x,y,z 
_cell_length_a                    39.0594015 
_cell_length_b                    45.927544943231155 
_cell_length_c                    26.643427105230835 
_cell_angle_alpha                 89.91291080332766 
_cell_angle_beta                  90.10604623994615 
_cell_angle_gamma                 90.13699532494476 
loop_ 
_atom_site_label 
_atom_site_type_symbol 
_atom_site_fract_x 
_atom_site_fract_y 
_atom_site_fract_z 
_atom_site_charge 
C1          C  0.48104267  0.52714853  0.92735272     0.02300
C2          C  0.51704692  0.53034058  0.92879181     0.02200
C3          C  0.53754262  0.50525897  0.92686028    -0.18300
C4          C  0.52351348  0.47694629  0.92854257     0.02300
C5          C  0.48735260  0.47375365  0.92725849     0.02200
C6          C  0.46677987  0.49894170  0.92556758    -0.18300
H7          H  0.43914773  0.49655574  0.92543621     0.04300
H8          H  0.56512869  0.50793847  0.92664773     0.04300
C9          C  0.98447593  0.97603768  0.08769571     0.02300
C10         C  0.02049794  0.97567254  0.09341734     0.02200
C11         C  0.03800540  0.00252597  0.09716999    -0.18300
C12         C  0.02078674  0.02952596  0.09369690     0.02300
C13         C  0.98465669  0.02960377  0.08765815     0.02200
C14         C  0.96717304  0.00281108  0.08628664    -0.18300
H15         H  0.93951917  0.00279626  0.08240607     0.04300
H16         H  0.06568568  0.00243225  0.10030391     0.04300
O17         O  0.20580116  0.18303320  0.98623187    -0.80900
O18         O  0.31014720  0.28937074  0.95073300    -0.65600
O19         O  0.26378841  0.21960637  0.99288287    -1.12200
C20         C  0.21624897  0.27546710  0.12096025     1.06000
O21         O  0.31479229  0.31073182  0.02564079    -0.78800
O22         O  0.30736639  0.26519314  0.09013079    -0.66400
Ni23       Ni  0.24102253  0.19711741  0.94214769     1.34900
C24         C  0.29667239  0.24075340  0.10612832     0.84700
O25         O  0.31457428  0.23407541  0.92309248    -0.79300
O26         O  0.27369257  0.20616784  0.89038527    -0.89600
C27         C  0.32301156  0.30847127  0.97972231     0.84300
O28         O  0.21318496  0.22907454  0.92286255    -0.67800
O29         O  0.24561584  0.28750717  0.12029184    -0.87100
C30         C  0.22442724  0.25277954  0.90449016     0.85100
C31         C  0.30295700  0.21818367  0.88792832     1.06700
H32         H  0.24094808  0.28579528  0.00071722     0.38500
O33         O  0.25735921  0.27361770  0.01791626    -1.09800
O34         O  0.26749686  0.23022897  0.09377252    -0.66400
Ni35       Ni  0.23470986  0.23886423  0.04035352     1.26300
O36         O  0.25355467  0.26327197  0.91710052    -0.66600
O37         O  0.20595966  0.25913265  0.08579243    -0.78900
C38         C  0.19818203  0.18477307  0.03244325     0.84500
O39         O  0.21131926  0.20396212  0.06084773    -0.66100
Ni40       Ni  0.27910427  0.29661569  0.06917638     1.27400
Ni41       Ni  0.28644792  0.25439003  0.97022684     1.26100
H42         H  0.28011857  0.20728333  0.00993345     0.39000
O43         O  0.70104277  0.31635531  0.03164555    -0.80900
O44         O  0.79931944  0.20765443  0.06094203    -0.65600
O45         O  0.76091377  0.28156424  0.02433959    -1.12200
C46         C  0.70782271  0.22661578  0.89399367     1.06000
O47         O  0.81182521  0.19668731  0.98238525    -0.78800
O48         O  0.79422900  0.23217160  0.90675863    -0.66400
Ni49       Ni  0.73876928  0.30478363  0.07421172     1.34900
C50         C  0.79095367  0.25942819  0.90078814     0.84700
O51         O  0.80802902  0.26143500  0.09563969    -0.79300
O52         O  0.77405290  0.29700852  0.12322418    -0.89600
C53         C  0.81652210  0.19321197  0.02927704     0.84300
O54         O  0.71097360  0.27425382  0.09958943    -0.67800
O55         O  0.73057483  0.20729909  0.90218057    -0.87100
C56         C  0.71843836  0.24812553  0.11021451     0.85100
C57         C  0.80054006  0.28097376  0.12752287     1.06700
H58         H  0.73212489  0.21906925  0.00852441     0.38500
O59         O  0.75080247  0.22959754  0.99311446    -1.09800
O60         O  0.76883451  0.27469296  0.92375316    -0.66400
Ni61       Ni  0.73298599  0.26635395  0.97142662     1.26300
O62         O  0.74534645  0.23559681  0.09429598    -0.66600
O63         O  0.70551719  0.25015821  0.91894592    -0.78900
C64         C  0.69740691  0.31872878  0.98441633     0.84500
O65         O  0.71463919  0.30360224  0.95381507    -0.66100
Ni66       Ni  0.77018010  0.20368384  0.94487285     1.27400
Ni67       Ni  0.77978839  0.24483575  0.04464953     1.26100
H68         H  0.77916322  0.29321076  0.01025765     0.39000
O69         O  0.79908335  0.82100494  0.99890209    -0.80900
O70         O  0.69379560  0.71456163  0.96677057    -0.65600
O71         O  0.74164014  0.78423037  0.00669840    -1.12200
C72         C  0.78545008  0.72933309  0.13838128     1.06000
O73         O  0.68495920  0.69737763  0.04372210    -0.78800
O74         O  0.69566822  0.74380281  0.10395293    -0.66400
Ni75       Ni  0.76426681  0.80597200  0.95478726     1.34900
C76         C  0.70827826  0.76757722  0.11972271     0.84700
O77         O  0.69034025  0.76992101  0.93808770    -0.79300
O78         O  0.73151276  0.79626929  0.90298649    -0.89600
C79         C  0.67839847  0.69756612  0.99702543     0.84300
O80         O  0.79210580  0.77356505  0.93738777    -0.67800
O81         O  0.75530408  0.71880380  0.13746412    -0.87100
C82         C  0.78059812  0.74934069  0.92148335     0.85100
C83         C  0.70157893  0.78531918  0.90219287     1.06700
H84         H  0.76134102  0.71706836  0.01875240     0.38500
O85         O  0.74571846  0.73047647  0.03460456    -1.09800
O86         O  0.73836848  0.77605958  0.10778047    -0.66400
Ni87       Ni  0.77025030  0.76471560  0.05498809     1.26300
O88         O  0.75110123  0.73956549  0.93386713    -0.66600
O89         O  0.79752444  0.74401260  0.10215513    -0.78900
C90         C  0.80797632  0.81852363  0.04458412     0.84500
O91         O  0.79602953  0.79884262  0.07318826    -0.66100
Ni92       Ni  0.72152589  0.71027520  0.08671062     1.27400
Ni93       Ni  0.71794651  0.74962084  0.98555924     1.26100
H94         H  0.72566373  0.79700068  0.02331337     0.39000
O95         O  0.28924545  0.67566463  0.04018373    -0.80900
O96         O  0.19342534  0.78819104  0.06930444    -0.65600
O97         O  0.23599354  0.71653535  0.02903464    -1.12200
C98         C  0.29471090  0.77092863  0.90881782     1.06000
O99         O  0.19409257  0.81025777  0.99466012    -0.78800
O100        O  0.20227407  0.76574709  0.92809748    -0.66400
Ni101      Ni  0.25342917  0.69156495  0.08074069     1.34900
C102        C  0.21182396  0.74080120  0.91312203     0.84700
O103        O  0.18304538  0.73316731  0.09393942    -0.79300
O104        O  0.21932357  0.70222887  0.12890150    -0.89600
C105        C  0.18337257  0.80814167  0.03956344     0.84300
O106        O  0.28344501  0.72098582  0.10478690    -0.67800
O107        O  0.26722956  0.78571948  0.90776024    -0.87100
C108        C  0.27428103  0.74558295  0.12182865     0.85100
C109        C  0.19125931  0.71598989  0.12931617     1.06700
H110        H  0.26470187  0.78129923  0.02665976     0.38500
O111        O  0.24827052  0.77031624  0.00718153    -1.09800
O112        O  0.23902966  0.72839011  0.92882316    -0.66400
Ni113      Ni  0.26926100  0.73464707  0.98598519     1.26300
O114        O  0.24667210  0.75824374  0.10758533    -0.66600
O115        O  0.30187958  0.75348668  0.94410026    -0.78900
C116        C  0.30015501  0.67822313  0.99561252     0.84500
O117        O  0.29090748  0.69888358  0.96701801    -0.66100
Ni118      Ni  0.23131357  0.79534531  0.95489095     1.27400
Ni119      Ni  0.21528195  0.75222698  0.05093228     1.26100
H120        H  0.21956947  0.70566703  0.00950674     0.39000
N121        N  0.00804051  0.29629040  0.44803288    -0.36600
N122        N  0.95830438  0.29890328  0.52802373    -0.57200
N123        N  0.01416216  0.30060225  0.60018155    -0.36600
N124        N  0.06363319  0.29586987  0.51951376    -0.57200
C125        C  0.97879213  0.29046414  0.42284475     0.27000
C126        C  0.03416862  0.28736563  0.41871205     0.27000
C127        C  0.98724005  0.29480767  0.63057986     0.27000
C128        C  0.04296314  0.29391385  0.62602157     0.27000
C129        C  0.93729766  0.30429774  0.48875810     0.35600
C130        C  0.94038683  0.30518379  0.56988644     0.35600
C131        C  0.08209704  0.29815776  0.47696658     0.35600
C132        C  0.08536622  0.30134528  0.55771915     0.35600
C133        C  0.98637870  0.27768451  0.37707138    -0.21900
C134        C  0.02137513  0.27562941  0.37454174    -0.21900
C135        C  0.99912085  0.28450456  0.67636995    -0.21900
C136        C  0.03426352  0.28407700  0.67358747    -0.21900
C137        C  0.90577988  0.31387844  0.50561187    -0.23000
C138        C  0.90771236  0.31441045  0.55716385    -0.23000
C139        C  0.11582208  0.30506579  0.48807030    -0.23000
C140        C  0.11792421  0.30700765  0.53947124    -0.23000
C141        C  0.94566536  0.29862575  0.43827079    -0.18300
C142        C  0.06923922  0.29189141  0.42876240    -0.18300
C143        C  0.07692946  0.29773345  0.60869975    -0.18300
C144        C  0.95241919  0.30057213  0.61932681    -0.18300
H145        H  0.96856966  0.27095354  0.34813253     0.14600
H146        H  0.03580039  0.26703514  0.34325817     0.14600
H147        H  0.98407139  0.27829229  0.70874418     0.14600
H148        H  0.05143982  0.27741726  0.70337668     0.14600
H149        H  0.88362295  0.31946847  0.48316204     0.12900
H150        H  0.88731950  0.32061261  0.58239810     0.12900
H151        H  0.13681104  0.30774999  0.46198894     0.12900
H152        H  0.14089782  0.31133614  0.56100742     0.12900
H153        H  0.01011241  0.30919715  0.47990974     0.26100
H154        H  0.01313715  0.31152238  0.56602238     0.26100
N155        N  0.98957822  0.70949575  0.46247954    -0.36600
N156        N  0.93799157  0.70710208  0.53998228    -0.57200
N157        N  0.99202143  0.70188046  0.61469476    -0.36600
N158        N  0.04366904  0.70646876  0.53645513    -0.57200
C159        C  0.96143691  0.71690747  0.43591506     0.27000
C160        C  0.01697155  0.71633944  0.43391286     0.27000
C161        C  0.96466504  0.70735049  0.64432025     0.27000
C162        C  0.02046434  0.70698443  0.64249206     0.27000
C163        C  0.91717638  0.70510110  0.49967307     0.35600
C164        C  0.91842495  0.70156449  0.58052876     0.35600
C165        C  0.06280103  0.70330209  0.49465664     0.35600
C166        C  0.06421473  0.70011103  0.57570599     0.35600
C167        C  0.97104378  0.72855866  0.38997021    -0.21900
C168        C  0.00606210  0.72804736  0.38856795    -0.21900
C169        C  0.97588975  0.71543086  0.69174929    -0.21900
C170        C  0.01104302  0.71524683  0.69056363    -0.21900
C171        C  0.88412423  0.69838680  0.51457268    -0.23000
C172        C  0.88486954  0.69632204  0.56602043    -0.23000
C173        C  0.09581237  0.69511353  0.50732313    -0.23000
C174        C  0.09673013  0.69312304  0.55885105    -0.23000
C175        C  0.92727417  0.71130314  0.45009404    -0.18300
C176        C  0.05135694  0.70995639  0.44574620    -0.18300
C177        C  0.05470532  0.70307966  0.62651691    -0.18300
C178        C  0.92981948  0.70419700  0.63051820    -0.18300
H179        H  0.95451870  0.73609746  0.36001435     0.14600
H180        H  0.02156252  0.73500726  0.35713794     0.14600
H181        H  0.96039808  0.72083948  0.72404335     0.14600
H182        H  0.02775406  0.72050005  0.72172614     0.14600
H183        H  0.86172122  0.69591396  0.49097705     0.12900
H184        H  0.86312817  0.69198749  0.59004600     0.12900
H185        H  0.11710730  0.69151469  0.48217002     0.12900
H186        H  0.11889188  0.68766793  0.58139586     0.12900
H187        H  0.98995416  0.69689983  0.49484272     0.26100
H188        H  0.99132206  0.69239718  0.57936239     0.26100
N189        N  0.49234971  0.80593256  0.42321783    -0.36600
N190        N  0.44171616  0.79273938  0.50151789    -0.57200
N191        N  0.49670523  0.79234379  0.57574714    -0.36600
N192        N  0.54729332  0.80596747  0.49821008    -0.57200
C193        C  0.46480101  0.79898870  0.39443742     0.27000
C194        C  0.52018263  0.80566055  0.39273795     0.27000
C195        C  0.46931305  0.78962118  0.60663590     0.27000
C196        C  0.52446383  0.79740907  0.60514367     0.27000
C197        C  0.42032388  0.79274674  0.46157213     0.35600
C198        C  0.42240386  0.78667130  0.54235492     0.35600
C199        C  0.56674590  0.81099998  0.45716081     0.35600
C200        C  0.56862747  0.80624800  0.53826845     0.35600
C201        C  0.47520437  0.79518525  0.34512558    -0.21900
C202        C  0.50991945  0.79928701  0.34407999    -0.21900
C203        C  0.48005025  0.79247508  0.65606651    -0.21900
C204        C  0.51461853  0.79693326  0.65517423    -0.21900
C205        C  0.38714426  0.78705365  0.47721728    -0.23000
C206        C  0.38850391  0.78296807  0.52821754    -0.23000
C207        C  0.60066602  0.81471110  0.47130315    -0.23000
C208        C  0.60185189  0.81168605  0.52260660    -0.23000
C209        C  0.43046506  0.79511967  0.41071959    -0.18300
C210        C  0.55486213  0.81047264  0.40683445    -0.18300
C211        C  0.55860466  0.80252176  0.58897618    -0.18300
C212        C  0.43468759  0.78474978  0.59236476    -0.18300
H213        H  0.45955503  0.78927346  0.31314133     0.14600
H214        H  0.52585636  0.79710910  0.31111954     0.14600
H215        H  0.46462911  0.79178156  0.68973302     0.14600
H216        H  0.53045986  0.79983258  0.68812079     0.14600
H217        H  0.36442682  0.78518009  0.45411405     0.12900
H218        H  0.36695246  0.77763504  0.55199788     0.12900
H219        H  0.62239416  0.81884975  0.44715035     0.12900
H220        H  0.62459122  0.81335549  0.54571089     0.12900
H221        H  0.49183777  0.81225558  0.46058347     0.26100
H222        H  0.49683551  0.78898469  0.53734787     0.26100
N223        N  0.50597980  0.18931488  0.56302039    -0.36600
N224        N  0.45366239  0.18267415  0.48672951    -0.57200
N225        N  0.50793185  0.18727226  0.41295110    -0.36600
N226        N  0.56025502  0.19212505  0.49041858    -0.57200
C227        C  0.47874383  0.18051931  0.59028086     0.27000
C228        C  0.53399168  0.18536363  0.59198904     0.27000
C229        C  0.48101812  0.18010369  0.38332914     0.27000
C230        C  0.53668917  0.18401155  0.38530594     0.27000
C231        C  0.43351152  0.18815290  0.52678418     0.35600
C232        C  0.43436643  0.18748956  0.44545903     0.35600
C233        C  0.57807863  0.20078664  0.53126707     0.35600
C234        C  0.57942442  0.19897287  0.45004178     0.35600
C235        C  0.48954924  0.17039986  0.63669654    -0.21900
C236        C  0.52453234  0.17320375  0.63760849    -0.21900
C237        C  0.49284140  0.17201137  0.33634796    -0.21900
C238        C  0.52790288  0.17441044  0.33760863    -0.21900
C239        C  0.40087610  0.19559220  0.51109507    -0.23000
C240        C  0.40137423  0.19509307  0.45938288    -0.23000
C241        C  0.60910128  0.21285625  0.51690117    -0.23000
C242        C  0.61010111  0.21145153  0.46528368    -0.23000
C243        C  0.44436791  0.18557797  0.57711746    -0.18300
C244        C  0.56687957  0.19642889  0.58108539    -0.18300
C245        C  0.57003517  0.19282146  0.39994027    -0.18300
C246        C  0.44614183  0.18438724  0.39558003    -0.18300
H247        H  0.47374164  0.16285296  0.66741635     0.14600
H248        H  0.54098768  0.16823340  0.66919725     0.14600
H249        H  0.47779120  0.16599356  0.30384349     0.14600
H250        H  0.54479351  0.17062211  0.30617035     0.14600
H251        H  0.37910226  0.20085077  0.53442207     0.12900
H252        H  0.37999188  0.19993575  0.43489093     0.12900
H253        H  0.62900048  0.22153777  0.54093784     0.12900
H254        H  0.63095665  0.21882131  0.44174493     0.12900
H255        H  0.50484629  0.20200849  0.53070274     0.26100
H256        H  0.50637503  0.19802850  0.44706677     0.26100
C257        C  0.29599130  0.75851927  0.16190633    -0.19900
C258        C  0.28161938  0.77128129  0.20532400     0.36300
C259        C  0.30305813  0.77854995  0.24608654    -0.25900
C260        C  0.33837213  0.77320981  0.24441402     0.02800
C261        C  0.35287366  0.76125078  0.20072542     0.27600
C262        C  0.33156907  0.75398176  0.16002831    -0.25000
N263        N  0.24520110  0.77506777  0.20928952    -0.82400
H264        H  0.29210221  0.78765782  0.27992270     0.13400
C265        C  0.35987839  0.77924173  0.28921744     0.02700
N266        N  0.38911482  0.75601969  0.19835407    -0.80900
H267        H  0.34269194  0.74403553  0.12701434     0.18200
C268        C  0.37298673  0.75588284  0.31724410    -0.25800
C269        C  0.39503413  0.76074755  0.35822115     0.36200
C270        C  0.40418015  0.78951188  0.37115556    -0.19800
C271        C  0.39050247  0.81289238  0.34376189    -0.25100
C272        C  0.36828040  0.80792915  0.30307828     0.27600
H273        H  0.36632345  0.73381638  0.30662556     0.13400
N274        N  0.40850700  0.73667380  0.38652729    -0.82300
H275        H  0.39766239  0.83499812  0.35340545     0.18200
N276        N  0.35494930  0.83198182  0.27500820    -0.80900
H277        H  0.39900221  0.71696768  0.37263310     0.33900
H278        H  0.43501188  0.73629381  0.38118202     0.38400
H279        H  0.37561695  0.84398265  0.26100805     0.33800
H280        H  0.34135130  0.84530380  0.29968964     0.30500
H281        H  0.39571570  0.74687153  0.16379540     0.33800
H282        H  0.40147864  0.77620633  0.20026260     0.30500
H283        H  0.23814263  0.79136905  0.18391672     0.38400
H284        H  0.23867740  0.78275807  0.24492230     0.33900
C285        C  0.31715102  0.77177148  0.86453120    -0.19900
C286        C  0.33493060  0.79713510  0.85031555     0.36300
C287        C  0.35302601  0.79748033  0.80464857    -0.25900
C288        C  0.35265017  0.77326490  0.77224597     0.02800
C289        C  0.33478469  0.74786065  0.78695095     0.27600
C290        C  0.31783587  0.74723133  0.83339994    -0.25000
N291        N  0.33428287  0.82239717  0.88206536    -0.82400
H292        H  0.36720583  0.81682187  0.79399876     0.13400
C293        C  0.37088370  0.77491791  0.72310893     0.02700
N294        N  0.33288407  0.72317512  0.75394079    -0.80900
H295        H  0.30362991  0.72793838  0.84435379     0.18200
C296        C  0.39413543  0.75294464  0.70979045    -0.25800
C297        C  0.41284300  0.75460331  0.66497399     0.36200
C298        C  0.40971044  0.77928455  0.63382877    -0.19800
C299        C  0.38566914  0.80075770  0.64606141    -0.25100
C300        C  0.36558091  0.79844699  0.68968928     0.27600
H301        H  0.39838265  0.73466846  0.73477590     0.13400
N302        N  0.43601571  0.73171223  0.65193694    -0.82300
H303        H  0.38310418  0.81965797  0.62197327     0.18200
N304        N  0.33989989  0.81992716  0.70029945    -0.80900
H305        H  0.42199272  0.71234281  0.64952416     0.33900
H306        H  0.45379439  0.72945324  0.68106068     0.38400
H307        H  0.33916633  0.83568287  0.67195304     0.33800
H308        H  0.31613441  0.80939982  0.69976156     0.30500
H309        H  0.31872437  0.70633164  0.77035283     0.33800
H310        H  0.31943546  0.72963329  0.72184973     0.30500
H311        H  0.34649508  0.81692733  0.91572544     0.38400
H312        H  0.34849290  0.83933853  0.86604607     0.33900
C313        C  0.16876550  0.71282299  0.17417499    -0.19900
C314        C  0.17734500  0.69384712  0.21454719     0.36300
C315        C  0.15661306  0.69303240  0.25729002    -0.25900
C316        C  0.12778258  0.71074959  0.26156671     0.02800
C317        C  0.11857782  0.72923705  0.22148556     0.27600
C318        C  0.13910848  0.73003483  0.17814338    -0.25000
N319        N  0.20742770  0.67585265  0.21305853    -0.82400
H320        H  0.16373788  0.67915720  0.28854082     0.13400
C321        C  0.10876379  0.71035145  0.30958152     0.02700
N322        N  0.08859905  0.74720350  0.22512676    -0.80900
H323        H  0.13216522  0.74454730  0.14774767     0.18200
C324        C  0.10608635  0.73608610  0.33756589    -0.25800
C325        C  0.08964972  0.73634406  0.38420087     0.36200
C326        C  0.07588682  0.71008105  0.40347722    -0.19800
C327        C  0.07943301  0.68422136  0.37620398    -0.25100
C328        C  0.09546515  0.68410545  0.32917202     0.27600
H329        H  0.11684289  0.75616227  0.32300781     0.13400
N330        N  0.08655478  0.76365211  0.41011295    -0.82300
H331        H  0.06805514  0.66435494  0.39061692     0.18200
N332        N  0.09754929  0.65763942  0.30058974    -0.80900
H333        H  0.07060036  0.77705191  0.38865121     0.33900
H334        H  0.07493749  0.76113785  0.44509934     0.38400
H335        H  0.08660553  0.64029303  0.32038024     0.33800
H336        H  0.08284474  0.66045962  0.26811911     0.30500
H337        H  0.08552647  0.75969377  0.19258647     0.33800
H338        H  0.06734007  0.73338581  0.22729492     0.30500
H339        H  0.22857870  0.68951504  0.21838188     0.38400
H340        H  0.20773102  0.66119631  0.24313493     0.33900
C341        C  0.08208519  0.70396770  0.66527597    -0.19900
C342        C  0.10062187  0.72980466  0.67421174     0.36300
C343        C  0.12358947  0.73096670  0.71472207    -0.25900
C344        C  0.12871994  0.70672093  0.74590921     0.02800
C345        C  0.11117832  0.68051286  0.73580559     0.27600
C346        C  0.08765951  0.67948056  0.69574736    -0.25000
N347        N  0.09507592  0.75502914  0.64324897    -0.82400
H348        H  0.13715916  0.75105170  0.72268614     0.13400
C349        C  0.15168070  0.70996980  0.78992819     0.02700
N350        N  0.11730470  0.65520610  0.76625649    -0.80900
H351        H  0.07332405  0.65969687  0.68849035     0.18200
C352        C  0.13759672  0.71013259  0.83839167    -0.25800
C353        C  0.15740648  0.71870067  0.88006255     0.36200
C354        C  0.19183342  0.72684285  0.87288241    -0.19800
C355        C  0.20649636  0.72476611  0.82503657    -0.25100
C356        C  0.18665890  0.71652252  0.78334393     0.27600
H357        H  0.11070692  0.70501830  0.84326274     0.13400
N358        N  0.14258910  0.71998968  0.92934124    -0.82300
H359        H  0.23302463  0.73105579  0.81981353     0.18200
N360        N  0.20144951  0.71579164  0.73400061    -0.80900
H361        H  0.11697981  0.71333617  0.92826349     0.33900
H362        H  0.15553222  0.70494776  0.95190738     0.38400
H363        H  0.22736013  0.72151301  0.73542426     0.33800
H364        H  0.20032999  0.69425786  0.72141380     0.30500
H365        H  0.10238395  0.63771225  0.75377848     0.33800
H366        H  0.14285496  0.64917353  0.76110465     0.30500
H367        H  0.10381892  0.75013472  0.60719466     0.38400
H368        H  0.10993668  0.77252020  0.65587985     0.33900
C369        C  0.68010884  0.79010006  0.85668575    -0.19900
C370        C  0.65196762  0.77189584  0.84459877     0.36300
C371        C  0.63405180  0.77647887  0.79947150    -0.25900
C372        C  0.64392363  0.79833847  0.76559234     0.02800
C373        C  0.67138928  0.81691662  0.77791338     0.27600
C374        C  0.68904361  0.81272128  0.82335616    -0.25000
N375        N  0.64215683  0.74833549  0.87719372    -0.82400
H376        H  0.61264708  0.76246077  0.78998684     0.13400
C377        C  0.62562773  0.80086030  0.71685448     0.02700
N378        N  0.68166675  0.83957140  0.74377935    -0.80900
H379        H  0.71032255  0.82697609  0.83232425     0.18200
C380        C  0.60798297  0.82655049  0.70508634    -0.25800
C381        C  0.58787752  0.82863665  0.66156443     0.36200
C382        C  0.58530397  0.80431442  0.62899340    -0.19800
C383        C  0.60436273  0.77919890  0.63953579    -0.25100
C384        C  0.62459919  0.77724856  0.68306714     0.27600
H385        H  0.60885109  0.84478078  0.73084704     0.13400
N386        N  0.56938928  0.85520746  0.65278962    -0.82300
H387        H  0.60223052  0.76059839  0.61473745     0.18200
N388        N  0.64350256  0.75114452  0.69382691    -0.80900
H389        H  0.55113384  0.85725368  0.68122182     0.33900
H390        H  0.55614381  0.85472101  0.61874814     0.38400
H391        H  0.63982209  0.73573379  0.66547177     0.33800
H392        H  0.66952542  0.75653237  0.69358973     0.30500
H393        H  0.70222060  0.85143374  0.75853415     0.33800
H394        H  0.69056238  0.82959498  0.71107142     0.30500
H395        H  0.66179399  0.73291158  0.87626688     0.38400
H396        H  0.62024085  0.73784482  0.86361642     0.33900
C397        C  0.68784060  0.78438760  0.15637115    -0.19900
C398        C  0.70253165  0.79432316  0.20176608     0.36300
C399        C  0.68102801  0.80385800  0.24071168    -0.25900
C400        C  0.64531444  0.80350645  0.23531479     0.02800
C401        C  0.63070819  0.79522990  0.18906649     0.27600
C402        C  0.65216069  0.78588644  0.14993939    -0.25000
N403        N  0.73884687  0.79221284  0.20991027    -0.82400
H404        H  0.69200634  0.80993005  0.27659562     0.13400
C405        C  0.62374583  0.80668201  0.28073738     0.02700
N406        N  0.59412434  0.79487576  0.18296741    -0.80900
H407        H  0.64088178  0.77816545  0.11520862     0.18200
C408        C  0.60470845  0.83208879  0.28886810    -0.25800
C409        C  0.58331919  0.83477811  0.33104878     0.36200
C410        C  0.58074560  0.81125590  0.36554545    -0.19800
C411        C  0.60027607  0.78612143  0.35746820    -0.25100
C412        C  0.62155706  0.78353286  0.31535052     0.27600
H413        H  0.60628089  0.84982310  0.26208454     0.13400
N414        N  0.56415787  0.86125527  0.33695065    -0.82300
H415        H  0.59788500  0.76799541  0.38332503     0.18200
N416        N  0.64042924  0.75716116  0.30679147    -0.80900
H417        H  0.58176245  0.87829517  0.34077260     0.33900
H418        H  0.54976593  0.86105222  0.36990390     0.38400
H419        H  0.63620882  0.74226247  0.33584507     0.33800
H420        H  0.63077285  0.74758473  0.27409735     0.30500
H421        H  0.58752528  0.78828069  0.14666094     0.33800
H422        H  0.58420975  0.77913634  0.20736686     0.30500
H423        H  0.75071541  0.80729090  0.18618308     0.38400
H424        H  0.74515722  0.79839324  0.24653853     0.33900
C425        C  0.80126998  0.73350919  0.88377754    -0.19900
C426        C  0.78572598  0.72047154  0.84127563     0.36300
C427        C  0.80630398  0.71161344  0.80084669    -0.25900
C428        C  0.84182868  0.71544636  0.80221150     0.02800
C429        C  0.85759267  0.72661486  0.84565802     0.27600
C430        C  0.83715328  0.73560751  0.88605447    -0.25000
N431        N  0.74907070  0.71841936  0.83745635    -0.82400
H432        H  0.79450176  0.70309370  0.76706145     0.13400
C433        C  0.86183194  0.71153375  0.75578699     0.02700
N434        N  0.89417805  0.73003885  0.84740364    -0.80900
H435        H  0.84916230  0.74547899  0.91856518     0.18200
C436        C  0.87079835  0.73640718  0.72829074    -0.25800
C437        C  0.89156845  0.73450532  0.68580260     0.36200
C438        C  0.90379606  0.70691237  0.67062496    -0.19800
C439        C  0.89377893  0.68184392  0.69704229    -0.25100
C440        C  0.87274878  0.68390562  0.73968478     0.27600
H441        H  0.86199632  0.75760415  0.74054536     0.13400
N442        N  0.90014879  0.76100087  0.65977190    -0.82300
H443        H  0.90325087  0.66079770  0.68516657     0.18200
N444        N  0.86293641  0.65827295  0.76714896    -0.80900
H445        H  0.91503552  0.77369572  0.68400606     0.33900
H446        H  0.91493258  0.75718461  0.62790291     0.38400
H447        H  0.87294670  0.63965372  0.75012087     0.33800
H448        H  0.87409559  0.65960004  0.80277198     0.30500
H449        H  0.90178499  0.73890930  0.88178926     0.33800
H450        H  0.90498474  0.70926483  0.84545038     0.30500
H451        H  0.74093462  0.70292060  0.86363707     0.38400
H452        H  0.74182754  0.71045028  0.80225332     0.33900
C453        C  0.90119604  0.71225109  0.40984433    -0.19900
C454        C  0.87899742  0.73620410  0.40457568     0.36300
C455        C  0.85843120  0.73828912  0.36144121    -0.25900
C456        C  0.86068806  0.71728367  0.32345984     0.02800
C457        C  0.88231422  0.69307324  0.32930892     0.27600
C458        C  0.90225102  0.69067518  0.37275677    -0.25000
N459        N  0.87830698  0.75860017  0.44219303    -0.82400
H460        H  0.84160478  0.75680055  0.35644611     0.13400
C461        C  0.84118958  0.72112916  0.27668264     0.02700
N462        N  0.88444478  0.67146412  0.29045569    -0.80900
H463        H  0.91976618  0.67256092  0.37696225     0.18200
C464        C  0.85889902  0.72766586  0.23239962    -0.25800
C465        C  0.84163132  0.72966947  0.18630238     0.36200
C466        C  0.80572417  0.72571580  0.18500160    -0.19800
C467        C  0.78820581  0.71914474  0.22982215    -0.25100
C468        C  0.80565849  0.71659697  0.27557240     0.27600
H469        H  0.88641762  0.73067408  0.23382820     0.13400
N470        N  0.86052235  0.73513438  0.14099676    -0.82300
H471        H  0.76068646  0.71615892  0.22938249     0.18200
N472        N  0.78758663  0.70923651  0.32084623    -0.80900
H473        H  0.88655749  0.73798500  0.14883164     0.33900
H474        H  0.85856250  0.71651607  0.11863132     0.38400
H475        H  0.76143228  0.70669282  0.31360558     0.33800
H476        H  0.79651204  0.68896298  0.33299750     0.30500
H477        H  0.90196742  0.65524649  0.30029508     0.33800
H478        H  0.86050066  0.66135701  0.28774652     0.30500
H479        H  0.90232154  0.76870963  0.44248613     0.38400
H480        H  0.86051441  0.77465847  0.43262294     0.33900
C481        C  0.69578053  0.23255921  0.14561286    -0.19900
C482        C  0.66050313  0.23899030  0.14803254     0.36300
C483        C  0.64129591  0.22886022  0.18885102    -0.25900
C484        C  0.65676749  0.21335502  0.22819894     0.02800
C485        C  0.69140331  0.20495063  0.22388773     0.27600
C486        C  0.71043536  0.21427237  0.18205185    -0.25000
N487        N  0.64460254  0.25664008  0.10996459    -0.82400
H488        H  0.61436071  0.23428268  0.19126194     0.13400
C489        C  0.63676759  0.20815876  0.27476780     0.02700
N490        N  0.70756707  0.18831622  0.26302624    -0.80900
H491        H  0.73746858  0.20914957  0.18000167     0.18200
C492        C  0.63350855  0.17986409  0.29422367    -0.25800
C493        C  0.61329896  0.17425726  0.33659602     0.36200
C494        C  0.59560300  0.19752733  0.35964671    -0.19800
C495        C  0.59946478  0.22583841  0.34098199    -0.25100
C496        C  0.62013037  0.23149582  0.29915481     0.27600
H497        H  0.64611639  0.16186244  0.27569119     0.13400
N498        N  0.61088942  0.14477273  0.35449825    -0.82300
H499        H  0.58574579  0.24352512  0.35874650     0.18200
N500        N  0.62403595  0.26082799  0.28099579    -0.80900
H501        H  0.59854019  0.13251422  0.32679388     0.33900
H502        H  0.59599230  0.14324752  0.38687275     0.38400
H503        H  0.60976280  0.27533131  0.30270839     0.33800
H504        H  0.64974755  0.26667168  0.28542572     0.30500
H505        H  0.73303531  0.18385010  0.25384744     0.33800
H506        H  0.70813301  0.20121361  0.29531793     0.30500
H507        H  0.64578597  0.24515737  0.07616696     0.38400
H508        H  0.61865647  0.25977915  0.11784054     0.33900
C509        C  0.58945206  0.20378437  0.62443104    -0.19900
C510        C  0.57787974  0.22307545  0.66203189     0.36300
C511        C  0.59683706  0.22620709  0.70640267    -0.25900
C512        C  0.62779011  0.21136167  0.71329904     0.02800
C513        C  0.64027416  0.19318754  0.67477382     0.27600
C514        C  0.62069591  0.18924912  0.63091883    -0.25000
N515        N  0.54633001  0.23873278  0.65544417    -0.82400
H516        H  0.58734274  0.24017564  0.73599486     0.13400
C517        C  0.64692906  0.21544665  0.76095048     0.02700
N518        N  0.67268949  0.17879924  0.68047221    -0.80900
H519        H  0.62943734  0.17438505  0.60214919     0.18200
C520        C  0.65457689  0.19121307  0.79108061    -0.25800
C521        C  0.67322049  0.19433042  0.83598346     0.36200
C522        C  0.68423808  0.22231507  0.85105521    -0.19800
C523        C  0.67534175  0.24662526  0.82181599    -0.25100
C524        C  0.65722150  0.24344695  0.77661943     0.27600
H525        H  0.64602311  0.16980536  0.77938198     0.13400
N526        N  0.68098421  0.16925592  0.86626039    -0.82300
H527        H  0.68403017  0.26809008  0.83299657     0.18200
N528        N  0.65009454  0.26843418  0.74576513    -0.80900
H529        H  0.67119623  0.15034103  0.84974660     0.33900
H530        H  0.66831518  0.17172635  0.90052303     0.38400
H531        H  0.65940117  0.28742645  0.76259252     0.33800
H532        H  0.66354855  0.26592117  0.71216060     0.30500
H533        H  0.67815681  0.16627034  0.64876085     0.33800
H534        H  0.69160103  0.19491131  0.68244914     0.30500
H535        H  0.54956582  0.25295620  0.62514659     0.38400
H536        H  0.54112323  0.25159510  0.68685207     0.33900
C537        C  0.82260428  0.28508318  0.17283836    -0.19900
C538        C  0.84838266  0.26491889  0.18695017     0.36300
C539        C  0.86588502  0.26871110  0.23269766    -0.25900
C540        C  0.85868080  0.29225141  0.26437231     0.02800
C541        C  0.83372421  0.31268139  0.25010768     0.27600
C542        C  0.81603509  0.30894096  0.20464276    -0.26200
N543        N  0.85639790  0.24039018  0.15563626    -0.82400
H544        H  0.88549018  0.25329632  0.24370191     0.13400
C545        C  0.87787315  0.29539689  0.31213810     0.02700
N546        N  0.82609226  0.33691016  0.28229684    -0.80900
H547        H  0.79657277  0.32465239  0.19450206     0.18200
C548        C  0.89877625  0.31990328  0.31935385    -0.25800
C549        C  0.91915338  0.32271138  0.36235464     0.36200
C550        C  0.91883884  0.30026976  0.39886330    -0.19800
C551        C  0.89674109  0.27643307  0.39279653    -0.25100
C552        C  0.87606874  0.27383955  0.34980491     0.27600
H553        H  0.89988455  0.33667207  0.29072575     0.13400
N554        N  0.94014273  0.34832222  0.36731379    -0.82300
H555        H  0.89677478  0.25922930  0.42068035     0.18200
N556        N  0.85371535  0.24919105  0.34369709    -0.80900
H557        H  0.95890687  0.34752447  0.33942172     0.33900
H558        H  0.95278644  0.34896228  0.40184051     0.38400
H559        H  0.85554962  0.23525179  0.37464503     0.33800
H560        H  0.82858536  0.25697948  0.34308360     0.30500
H561        H  0.80713558  0.35004735  0.26634767     0.33800
H562        H  0.81592650  0.32855047  0.31562960     0.30500
H563        H  0.86829075  0.24844473  0.12333005     0.38400
H564        H  0.87432552  0.22685636  0.17310637     0.33900
C565        C  0.81404802  0.27346289  0.86432992    -0.19900
C566        C  0.80116052  0.28839361  0.82200031     0.36300
C567        C  0.82374201  0.29624279  0.78310533    -0.25900
C568        C  0.85871979  0.28955597  0.78616439     0.02800
C569        C  0.87175972  0.27584226  0.82944935     0.27600
C570        C  0.84925215  0.26794324  0.86815672    -0.25000
N571        N  0.76502208  0.29358867  0.81703901    -0.82400
H572        H  0.81392706  0.30659474  0.74947003     0.13400
C573        C  0.88088945  0.29399296  0.74183717     0.02700
N574        N  0.90757326  0.26893581  0.83293256    -0.80900
H575        H  0.85895375  0.25630727  0.90060838     0.18200
C576        C  0.90545604  0.31626395  0.74200332    -0.25800
C577        C  0.92832164  0.31973637  0.70189303     0.36200
C578        C  0.92704007  0.29991497  0.66109986    -0.19800
C579        C  0.90209760  0.27784197  0.66094817    -0.25100
C580        C  0.87893322  0.27474578  0.70082657     0.27600
H581        H  0.90687018  0.33104612  0.77361493     0.13400
N582        N  0.95201319  0.34372571  0.70371623    -0.82300
H583        H  0.90120465  0.26260522  0.62994696     0.18200
N584        N  0.85380594  0.25181134  0.70040266    -0.80900
H585        H  0.96935758  0.33965294  0.73281374     0.33900
H586        H  0.96610031  0.34570049  0.67066447     0.38400
H587        H  0.85556491  0.23967599  0.66734123     0.33800
H588        H  0.85956550  0.23759526  0.72990620     0.30500
H589        H  0.91304227  0.25897713  0.86733329     0.33800
H590        H  0.91302356  0.25359351  0.80513185     0.30500
H591        H  0.75804909  0.30850998  0.84475986     0.38400
H592        H  0.75961323  0.30350604  0.78258049     0.33900
C593        C  0.32323720  0.21381241  0.84147619    -0.19900
C594        C  0.30690813  0.20909640  0.79455143     0.36300
C595        C  0.32682511  0.20363562  0.75178512    -0.25900
C596        C  0.36258140  0.20332823  0.75449942     0.02800
C597        C  0.37899433  0.20841780  0.80084968     0.27600
C598        C  0.35915081  0.21379455  0.84389104    -0.25000
N599        N  0.27021731  0.21042522  0.79017504    -0.82400
H600        H  0.31446211  0.20009788  0.71584304     0.13400
C601        C  0.38244380  0.19853914  0.70794030     0.02700
N602        N  0.41572092  0.20780330  0.80398825    -0.80900
H603        H  0.37174251  0.21737794  0.87962574     0.18200
C604        C  0.40130087  0.22170637  0.68767095    -0.25800
C605        C  0.42045605  0.21808489  0.64360595     0.36200
C606        C  0.42015462  0.19093692  0.61893305    -0.19800
C607        C  0.40100563  0.16780753  0.63881551    -0.25100
C608        C  0.38241934  0.17126505  0.68362421     0.27600
H609        H  0.40132428  0.24255533  0.70666873     0.13400
N610        N  0.44126823  0.24148437  0.62461897    -0.82300
H611        H  0.40183922  0.14676792  0.62052415     0.18200
N612        N  0.36433825  0.14707201  0.70538985    -0.80900
H613        H  0.43922734  0.25982912  0.64760268     0.33900
H614        H  0.43153700  0.24737608  0.58947580     0.38400
H615        H  0.36711856  0.12850120  0.68312875     0.33800
H616        H  0.37593568  0.14236842  0.73986390     0.30500
H617        H  0.42381427  0.21196053  0.84071913     0.33800
H618        H  0.42359987  0.18664340  0.79543326     0.30500
H619        H  0.26280496  0.23180010  0.79802443     0.38400
H620        H  0.26242461  0.20616880  0.75333392     0.33900
C621        C  0.31790822  0.22529656  0.14371977    -0.19900
C622        C  0.35396237  0.22471651  0.13994664     0.36300
C623        C  0.37348968  0.21404372  0.18035943    -0.25900
C624        C  0.35770994  0.20423367  0.22450348     0.02800
C625        C  0.32171708  0.20406241  0.22788056     0.27600
C626        C  0.30211696  0.21424826  0.18712071    -0.25000
N627        N  0.37057311  0.23560652  0.09559228    -0.82400
H628        H  0.40119607  0.21432650  0.17824169     0.13400
C629        C  0.37931551  0.19781191  0.26894084     0.02700
N630        N  0.30538044  0.19521573  0.27375487    -0.80900
H631        H  0.27448793  0.21519132  0.19041770     0.18200
C632        C  0.39260893  0.22156964  0.29567020    -0.25800
C633        C  0.41395121  0.21746011  0.33747106     0.36200
C634        C  0.42171832  0.18898308  0.35341767    -0.19800
C635        C  0.40818269  0.16509404  0.32717960    -0.25100
C636        C  0.38720569  0.16912088  0.28482332     0.27600
H637        H  0.38655521  0.24347510  0.28338941     0.13400
N638        N  0.42796323  0.24207051  0.36381161    -0.82300
H639        H  0.41467577  0.14320265  0.33901369     0.18200
N640        N  0.37537174  0.14375675  0.25832701    -0.80900
H641        H  0.41940488  0.26153228  0.34777015     0.33900
H642        H  0.45453258  0.24168500  0.35915195     0.38400
H643        H  0.35931073  0.13211340  0.28249553     0.33800
H644        H  0.36074833  0.14929520  0.22693525     0.30500
H645        H  0.27881362  0.19740209  0.27080226     0.33800
H646        H  0.31020885  0.17304223  0.27888528     0.30500
H647        H  0.36330154  0.22225141  0.06564893     0.38400
H648        H  0.39716517  0.23384679  0.09894632     0.33900
C649        C  0.10511556  0.29462886  0.64561532    -0.19900
C650        C  0.12043676  0.26727657  0.65512634     0.36300
C651        C  0.14281049  0.26441742  0.69581289    -0.25900
C652        C  0.14966956  0.28792989  0.72782711     0.02800
C653        C  0.13596850  0.31556272  0.71682541     0.27600
C654        C  0.11386398  0.31868293  0.67545660    -0.25000
N655        N  0.11290492  0.24175276  0.62581417    -0.82400
H656        H  0.15358634  0.24321658  0.70414714     0.13400
C657        C  0.16752732  0.28208674  0.77581845     0.02700
N658        N  0.14335093  0.33993092  0.74888393    -0.80900
H659        H  0.10204388  0.33955937  0.66787474     0.18200
C660        C  0.19987401  0.29412984  0.78532143    -0.25800
C661        C  0.21831826  0.28670198  0.82902003     0.36200
C662        C  0.20392066  0.26666276  0.86373385    -0.19800
C663        C  0.17054125  0.25616218  0.85505074    -0.25100
C664        C  0.15234795  0.26354697  0.81153683     0.27600
H665        H  0.21115422  0.30863634  0.75779456     0.13400
N666        N  0.25207909  0.29839879  0.83679457    -0.82300
H667        H  0.15892823  0.24115486  0.88144110     0.18200
N668        N  0.11876189  0.25166343  0.80265839    -0.80900
H669        H  0.25937067  0.31153137  0.80653900     0.33900
H670        H  0.25096162  0.31206471  0.86809600     0.38400
H671        H  0.11135690  0.23804271  0.83219913     0.33800
H672        H  0.10146548  0.26900122  0.80204213     0.30500
H673        H  0.13131190  0.35870625  0.73544509     0.33800
H674        H  0.13270530  0.33551835  0.78406768     0.30500
H675        H  0.09628438  0.24618873  0.59611605     0.38400
H676        H  0.10031834  0.22690571  0.64920583     0.33900
C677        C  0.19439179  0.27943498  0.16582298    -0.19900
C678        C  0.15836571  0.27643240  0.16365657     0.36300
C679        C  0.13920300  0.27862708  0.20803131    -0.25900
C680        C  0.15522716  0.28413821  0.25412150     0.02800
C681        C  0.19092019  0.28787814  0.25635515     0.27600
C682        C  0.21020517  0.28536433  0.21221351    -0.25000
N683        N  0.14132975  0.27156046  0.11652433    -0.82400
H684        H  0.11160865  0.27617267  0.20677963     0.13400
C685        C  0.13412169  0.28666171  0.29971047     0.02700
N686        N  0.20732416  0.29423699  0.30345338    -0.80900
H687        H  0.23778868  0.28765273  0.21423212     0.18200
C688        C  0.13542465  0.26459985  0.33612917    -0.25800
C689        C  0.11473333  0.26597797  0.37912216     0.36200
C690        C  0.09321677  0.29022351  0.38592265    -0.19800
C691        C  0.09227638  0.31239455  0.34977258    -0.25100
C692        C  0.11249486  0.31080057  0.30650353     0.27600
H693        H  0.15204189  0.24604694  0.33034413     0.13400
N694        N  0.11496330  0.24278240  0.41540510    -0.82300
H695        H  0.07528917  0.33074939  0.35514544     0.18200
N696        N  0.11104130  0.33340837  0.26919421    -0.80900
H697        H  0.13222609  0.22656787  0.40476814     0.33900
H698        H  0.09066052  0.23318289  0.41522234     0.38400
H699        H  0.09354361  0.34947723  0.27966617     0.33800
H700        H  0.13509700  0.34341494  0.26798555     0.30500
H701        H  0.23379220  0.29624328  0.29872178     0.33800
H702        H  0.19854790  0.31456052  0.31543820     0.30500
H703        H  0.14511019  0.29010357  0.09438019     0.38400
H704        H  0.11489966  0.26954745  0.12170812     0.33900
C705        C  0.96393622  0.05672330  0.08074027    -0.19900
C706        C  0.94352848  0.06099165  0.03713044     0.36300
C707        C  0.92098014  0.08462407  0.03478361    -0.25900
C708        C  0.91863758  0.10499989  0.07372329     0.02800
C709        C  0.93921115  0.10124118  0.11691382     0.27600
C710        C  0.96161694  0.07710278  0.12002400    -0.25000
N711        N  0.94507433  0.04203226  0.99418539    -0.82400
H712        H  0.90521614  0.08729765  0.00156893     0.13400
C713        C  0.89487114  0.13023340  0.06702973     0.02700
N714        N  0.93715627  0.12179564  0.15739453    -0.80900
H715        H  0.97682256  0.07381970  0.15360444     0.18200
C716        C  0.86674529  0.13396275  0.09926822    -0.25800
C717        C  0.84130422  0.15510830  0.08922559     0.36200
C718        C  0.84406077  0.17280946  0.04584306    -0.19800
C719        C  0.87291547  0.16965170  0.01488794    -0.25100
C720        C  0.89829220  0.14881328  0.02510148     0.27600
H721        H  0.86393063  0.11954319  0.13122077     0.13400
N722        N  0.81180311  0.15733226  0.12114661    -0.82300
H723        H  0.87548831  0.18333297  0.98192852     0.18200
N724        N  0.92729361  0.14594963  0.99231971    -0.80900
H725        H  0.81264189  0.14150384  0.14936763     0.33900
H726        H  0.81311093  0.17744728  0.13935338     0.38400
H727        H  0.92588993  0.16094867  0.96283138     0.33800
H728        H  0.94919351  0.15120990  0.01305967     0.30500
H729        H  0.95373531  0.11585730  0.18649754     0.33800
H730        H  0.94577697  0.14188862  0.14385630     0.30500
H731        H  0.96466392  0.02677479  0.99743800     0.38400
H732        H  0.95166626  0.05479135  0.96311880     0.33900
C733        C  0.04201347  0.05665492  0.09251267    -0.19900
C734        C  0.04421709  0.07383888  0.04875331     0.36300
C735        C  0.06842641  0.09643191  0.04578638    -0.25900
C736        C  0.09153905  0.10179806  0.08513016     0.02800
C737        C  0.08903161  0.08515496  0.12953715     0.27600
C738        C  0.06405357  0.06293994  0.13296617    -0.25000
N739        N  0.02349927  0.06722253  0.00589033    -0.82400
H740        H  0.07045253  0.10889078  0.01132909     0.13400
C741        C  0.12065970  0.12222456  0.07611878     0.02700
N742        N  0.11279269  0.08997595  0.16994651    -0.80900
H743        H  0.06279936  0.04952817  0.16641029     0.18200
C744        C  0.12337343  0.14862115  0.10252115    -0.25800
C745        C  0.14932013  0.16915922  0.09095143     0.36200
C746        C  0.17292185  0.16304577  0.05203533    -0.19800
C747        C  0.17072145  0.13601725  0.02740837    -0.25100
C748        C  0.14511255  0.11564727  0.03907792     0.27600
H749        H  0.10461958  0.15353672  0.13117428     0.13400
N750        N  0.15052617  0.19662818  0.11668385    -0.82300
H751        H  0.18890807  0.13084267  0.99810422     0.18200
N752        N  0.14344611  0.08834010  0.01280709    -0.80900
H753        H  0.13020304  0.19831017  0.14199623     0.33900
H754        H  0.17290069  0.19699210  0.13825793     0.38400
H755        H  0.16301390  0.08691657  0.98620609     0.33800
H756        H  0.14781667  0.07177888  0.03900077     0.30500
H757        H  0.10755861  0.07590419  0.19986444     0.33800
H758        H  0.13720887  0.08458263  0.15694242     0.30500
H759        H  0.00954114  0.08587010  0.99657809     0.38400
H760        H  0.03974425  0.06248582  0.97586468     0.33900
C761        C  0.04073952  0.94793265  0.09220847    -0.19900
C762        C  0.06356630  0.94049110  0.13138398     0.36300
C763        C  0.08514669  0.91603743  0.12624951    -0.25900
C764        C  0.08369284  0.89832650  0.08338407     0.02800
C765        C  0.05961619  0.90478296  0.04548777     0.27600
C766        C  0.03870619  0.92961945  0.05004655    -0.25000
N767        N  0.06485993  0.95794026  0.17607143    -0.82400
H768        H  0.10357032  0.91098782  0.15541915     0.13400
C769        C  0.10982187  0.87504349  0.07602441     0.02700
N770        N  0.05693729  0.88635786  0.00207778    -0.80900
H771        H  0.02155461  0.93519127  0.01971890     0.18200
C772        C  0.10186217  0.84568910  0.08570230    -0.25800
C773        C  0.12585693  0.82332062  0.07600020     0.36200
C774        C  0.15843189  0.83057487  0.05645644    -0.19800
C775        C  0.16624934  0.85997320  0.04734928    -0.25100
C776        C  0.14242174  0.88219980  0.05698063     0.27600
H777        H  0.07666659  0.84021824  0.09986441     0.13400
N778        N  0.11684790  0.79333743  0.08422753    -0.82300
H779        H  0.19102239  0.86557664  0.03178064     0.18200
N780        N  0.15102587  0.91209016  0.04684833    -0.80900
H781        H  0.09204628  0.79169805  0.09868963     0.33900
H782        H  0.11648238  0.78298028  0.04930719     0.38400
H783        H  0.17611030  0.91377925  0.03350548     0.33800
H784        H  0.13506007  0.91936204  0.01791523     0.30500
H785        H  0.03764914  0.89380133  0.97803801     0.33800
H786        H  0.07992391  0.88795730  0.98222357     0.30500
H787        H  0.04098054  0.95629883  0.19354826     0.38400
H788        H  0.08281821  0.94955249  0.20135942     0.33900
C789        C  0.83322801  0.84014766  0.06370284    -0.19900
C790        C  0.86456248  0.83185181  0.08606571     0.36300
C791        C  0.89060147  0.85293527  0.09306384    -0.25900
C792        C  0.88542363  0.88224401  0.07961818     0.02800
C793        C  0.85288389  0.89082323  0.06182033     0.27600
C794        C  0.82753081  0.86966868  0.05302280    -0.25000
N795        N  0.87052826  0.80190705  0.09892416    -0.82400
H796        H  0.91536650  0.84631678  0.10739498     0.13400
C797        C  0.91430330  0.90370741  0.08131871     0.02700
N798        N  0.84593369  0.92103505  0.05196711    -0.80900
H799        H  0.80327048  0.87617206  0.03674362     0.18200
C800        C  0.92199311  0.91972857  0.03773261    -0.25800
C801        C  0.94575961  0.94274351  0.03853880     0.36200
C802        C  0.96351522  0.94909614  0.08336821    -0.19800
C803        C  0.95759164  0.93198686  0.12617197    -0.25100
C804        C  0.93268190  0.90966875  0.12590369     0.27600
H805        H  0.90828105  0.91497497  0.00330144     0.13400
N806        N  0.95070462  0.96060791  0.99471930    -0.82300
H807        H  0.97097213  0.93724429  0.16066539     0.18200
N808        N  0.92488667  0.89403182  0.17122429    -0.80900
H809        H  0.93518463  0.95341985  0.96519860     0.33900
H810        H  0.97598420  0.95819222  0.98280914     0.38400
H811        H  0.94055071  0.90112906  0.20065262     0.33800
H812        H  0.89975408  0.89917745  0.18126751     0.30500
H813        H  0.82085595  0.92374762  0.03902552     0.33800
H814        H  0.84762551  0.93213021  0.08612956     0.30500
H815        H  0.85368387  0.79655497  0.12797497     0.38400
H816        H  0.89522327  0.79927726  0.11343039     0.33900
C817        C  0.67100127  0.33903959  0.96582941    -0.19900
C818        C  0.63616175  0.33403044  0.97678173     0.36300
C819        C  0.61183441  0.35565257  0.96565737    -0.25900
C820        C  0.62179021  0.38231960  0.94451058     0.02800
C821        C  0.65653878  0.38702689  0.93224105     0.27600
C822        C  0.68083640  0.36517270  0.94266135    -0.25000
N823        N  0.62585699  0.30726943  0.00046422    -0.82400
H824        H  0.58518532  0.35218356  0.97525923     0.13400
C825        C  0.59608889  0.40599311  0.93961585     0.02700
N826        N  0.66704711  0.41429179  0.91058381    -0.80900
H827        H  0.70767987  0.36902840  0.93479390     0.18200
C828        C  0.59848212  0.42996342  0.97180758    -0.25800
C829        C  0.57418939  0.45245210  0.97026389     0.36200
C830        C  0.54760542  0.45175578  0.93398225    -0.19800
C831        C  0.54516851  0.42753391  0.90185808    -0.25100
C832        C  0.56876249  0.40437004  0.90505949     0.27600
H833        H  0.61905035  0.43075325  0.99913914     0.13400
N834        N  0.57616993  0.47585887  0.00595461    -0.82300
H835        H  0.52516882  0.42684934  0.87370636     0.18200
N836        N  0.56520513  0.37926495  0.87334004    -0.80900
H837        H  0.59717474  0.47320564  0.02989223     0.33900
H838        H  0.55426947  0.47479320  0.02839075     0.38400
H839        H  0.54357941  0.38123952  0.85041136     0.33800
H840        H  0.58644472  0.37867136  0.84954926     0.30500
H841        H  0.69346453  0.41444012  0.90429798     0.33800
H842        H  0.65532154  0.41604676  0.87540687     0.30500
H843        H  0.63105471  0.29032691  0.97545973     0.38400
H844        H  0.59941791  0.30705416  0.00653448     0.33900
C845        C  0.34917446  0.32915417  0.96080046    -0.19900
C846        C  0.34022485  0.35796984  0.94827759     0.36300
C847        C  0.36618251  0.37867610  0.93917687    -0.25900
C848        C  0.40100290  0.37129454  0.94293604     0.02800
C849        C  0.40996927  0.34226115  0.95437710     0.27600
C850        C  0.38393257  0.32147377  0.96322307    -0.25000
N851        N  0.30479407  0.36629985  0.94664842    -0.82400
H852        H  0.35926380  0.40096976  0.93057181     0.13400
C853        C  0.42731898  0.39471976  0.93652796     0.02700
N854        N  0.44540664  0.33414771  0.95768956    -0.80900
H855        H  0.39074820  0.29943068  0.97374550     0.18200
C856        C  0.44732873  0.40359257  0.97773006    -0.25800
C857        C  0.46837200  0.42862442  0.97499247     0.36200
C858        C  0.46964278  0.44491156  0.93001017    -0.19800
C859        C  0.45095260  0.43516038  0.88820192    -0.25100
C860        C  0.43012584  0.41011089  0.89085845     0.27600
H861        H  0.44525973  0.39175142  0.01280250     0.13400
N862        N  0.48749428  0.43812811  0.01812665    -0.82300
H863        H  0.45211475  0.44755958  0.85361324     0.18200
N864        N  0.41121225  0.40048437  0.84762319    -0.80900
H865        H  0.48386563  0.42378666  0.04817155     0.33900
H866        H  0.47761221  0.45823066  0.02931002     0.38400
H867        H  0.41594983  0.41414484  0.81697549     0.33800
H868        H  0.42046082  0.37991125  0.83786534     0.30500
H869        H  0.44769178  0.31206661  0.96668554     0.33800
H870        H  0.45613075  0.33682921  0.92204953     0.30500
H871        H  0.29319062  0.35468933  0.91746331     0.38400
H872        H  0.30246897  0.38837452  0.93763095     0.33900
C873        C  0.32554383  0.65640960  0.97808088    -0.19900
C874        C  0.32407390  0.62725090  0.99525565     0.36300
C875        C  0.35100881  0.60808451  0.98424471    -0.25900
C876        C  0.37942496  0.61724651  0.95636030     0.02800
C877        C  0.38067256  0.64606444  0.93799594     0.27600
C878        C  0.35347646  0.66530703  0.94851253    -0.25000
N879        N  0.29527286  0.61723230  0.02412663    -0.82400
H880        H  0.35003748  0.58584658  0.99785072     0.13400
C881        C  0.40777358  0.59626336  0.94778859     0.02700
N882        N  0.40997225  0.65585677  0.91007526    -0.80900
H883        H  0.35488614  0.68767831  0.93567425     0.18200
C884        C  0.41244253  0.58419302  0.89998473    -0.25800
C885        C  0.43678909  0.56223153  0.89160785     0.36200
C886        C  0.45744876  0.55240009  0.93207354    -0.19800
C887        C  0.45313515  0.56495042  0.97963788    -0.25100
C888        C  0.42842300  0.58665304  0.98797111     0.27600
H889        H  0.39628909  0.59128523  0.86920884     0.13400
N890        N  0.43916315  0.55009059  0.84200563    -0.82300
H891        H  0.46837789  0.55707916  0.01078893     0.18200
N892        N  0.42359061  0.59853015  0.03733166    -0.80900
H893        H  0.44653226  0.56685620  0.81771047     0.33900
H894        H  0.45823875  0.53429308  0.83974899     0.38400
H895        H  0.44044466  0.58888361  0.06292151     0.33800
H896        H  0.42998876  0.62062958  0.03578926     0.30500
H897        H  0.40701791  0.67763069  0.89942942     0.33800
H898        H  0.43114534  0.65511016  0.93412158     0.30500
H899        H  0.27366703  0.61823162  0.00096714     0.38400
H900        H  0.29829865  0.59538758  0.03428136     0.33900
C901        C  0.53463961  0.55881062  0.93785592    -0.19900
C902        C  0.55306721  0.56308341  0.98287700     0.36300
C903        C  0.57405461  0.58778499  0.98846286    -0.25900
C904        C  0.57691104  0.60876293  0.95028979     0.02800
C905        C  0.55733689  0.60521743  0.90599811     0.27600
C906        C  0.53642957  0.58018860  0.90010441    -0.25000
N907        N  0.55102694  0.54177311  0.02236481    -0.82400
H908        H  0.58885916  0.59044963  0.02258889     0.13400
C909        C  0.60070432  0.63405081  0.95802262     0.02700
N910        N  0.55893659  0.62694072  0.86721298    -0.80900
H911        H  0.52227490  0.57693661  0.86554693     0.18200
C912        C  0.62870403  0.63856029  0.92560495    -0.25800
C913        C  0.65392345  0.65997559  0.93597587     0.36200
C914        C  0.65093052  0.67730966  0.97952061    -0.19800
C915        C  0.62223674  0.67341174  0.01064146    -0.25100
C916        C  0.59714386  0.65224696  0.00029008     0.27600
H917        H  0.63165038  0.62449771  0.89330064     0.13400
N918        N  0.68313139  0.66326561  0.90372025    -0.82300
H919        H  0.61962345  0.68678127  0.04389553     0.18200
N920        N  0.56820138  0.64882703  0.03306522    -0.80900
H921        H  0.68150352  0.64887869  0.87342956     0.33900
H922        H  0.70484626  0.65728133  0.92426271     0.38400
H923        H  0.56943047  0.66370518  0.06268359     0.33800
H924        H  0.54623429  0.65392440  0.01239465     0.30500
H925        H  0.54306560  0.62118040  0.83717039     0.33800
H926        H  0.54910807  0.64626082  0.88201310     0.30500
H927        H  0.52578648  0.54136205  0.03528681     0.38400
H928        H  0.56631345  0.54788139  0.05284300     0.33900
loop_ 
_geom_bond_atom_site_label_1 
_geom_bond_atom_site_label_2 
_geom_bond_distance 
_geom_bond_site_symmetry_2 
_ccdc_geom_bond_type 
C1            C2   1.414       .  A
C1            C6   1.410       .  A
C1          C886   1.489       .  S
C2            C3   1.405       .  A
C2          C901   1.495       .  S
C3            C4   1.411       .  A
C3            H8   1.084       .  S
C4            C5   1.420       .  A
C4          C830   1.500       .  S
C5            C6   1.411       .  A
C5          C858   1.495       .  S
C6            H7   1.085       .  S
C9           C10   1.415   1_655  A
C9           C14   1.405   1_565  A
C9          C802   1.487       .  S
C10          C11   1.412   1_565  A
C10         C761   1.501       .  S
C11          C12   1.415       .  A
C11          H16   1.084       .  S
C12          C13   1.420   1_455  A
C12         C733   1.495       .  S
C13          C14   1.406       .  A
C13         C705   1.498       .  S
C14          H15   1.085       .  S
O17         Ni23   1.921       .  S
O17          C38   1.270   1_556  A
O18         Ni41   1.924       .  S
O18          C27   1.272       .  A
O19         Ni23   1.918       .  S
O19         Ni41   1.921       .  S
O19         Ni35   1.920   1_556  S
O19          H42   0.966   1_556  S
C20         C677   1.482       .  S
C20          O37   1.266       .  A
C20          O29   1.272       .  A
O21         Ni40   1.926       .  S
O21          C27   1.270   1_554  A
O22         Ni40   1.902       .  S
O22          C24   1.270       .  A
Ni23         O26   1.925       .  S
Ni23         O28   1.898       .  S
C24         C621   1.481       .  S
C24          O34   1.279       .  A
O25         Ni41   1.915       .  S
O25          C31   1.271       .  A
O26          C31   1.270       .  A
C27         C845   1.482       .  S
O28          C30   1.271       .  A
O29         Ni40   1.935       .  S
C30         C662   1.491       .  S
C30          O36   1.279       .  A
C31         C593   1.485       .  S
H32          O33   0.966       .  S
O33         Ni41   1.923   1_554  S
O33         Ni35   1.918       .  S
O33         Ni40   1.923       .  S
O34         Ni35   1.954       .  S
Ni35         O39   1.922       .  S
Ni35         O37   1.899       .  S
O36         Ni41   1.953       .  S
C38         C746   1.496       .  S
C38          O39   1.269       .  A
O43         Ni49   1.933       .  S
O43          C64   1.271   1_554  A
O44         Ni67   1.921       .  S
O44          C53   1.269       .  A
O45         Ni49   1.914       .  S
O45         Ni67   1.919       .  S
O45         Ni61   1.913   1_554  S
O45          H68   0.966       .  S
C46         C522   1.481       .  S
C46          O63   1.274       .  A
C46          O55   1.275       .  A
O47         Ni66   1.935       .  S
O47          C53   1.272   1_556  A
O48         Ni66   1.902       .  S
O48          C50   1.268       .  A
Ni49         O52   1.930       .  S
Ni49         O54   1.896       .  S
C50         C565   1.474       .  S
C50          O60   1.272       .  A
O51         Ni67   1.907       .  S
O51          C57   1.272       .  A
O52          C57   1.276       .  A
C53         C718   1.494       .  S
O54          C56   1.267       .  A
O55         Ni66   1.926       .  S
C56         C481   1.477       .  S
C56          O62   1.273       .  A
C57         C537   1.494       .  S
H58          O59   0.966   1_554  S
O59         Ni67   1.911   1_556  S
O59         Ni61   1.915       .  S
O59         Ni66   1.912       .  S
O60         Ni61   1.930       .  S
Ni61         O65   1.914       .  S
Ni61         O63   1.911       .  S
O62         Ni67   1.934       .  S
C64         C817   1.477       .  S
C64          O65   1.267       .  A
O69         Ni75   1.923       .  S
O69          C90   1.270   1_556  A
O70         Ni93   1.930       .  S
O70          C79   1.272       .  A
O71         Ni75   1.920   1_554  S
O71         Ni93   1.922   1_554  S
O71         Ni87   1.924       .  S
O71          H94   0.966       .  S
C72         C466   1.481       .  S
C72          O89   1.268       .  A
C72          O81   1.272       .  A
O73         Ni92   1.922       .  S
O73          C79   1.270   1_554  A
O74         Ni92   1.901       .  S
O74          C76   1.269       .  A
Ni75         O78   1.932       .  S
Ni75         O80   1.904       .  S
C76         C397   1.482       .  S
C76          O86   1.278       .  A
O77         Ni93   1.905       .  S
O77          C83   1.267       .  A
O78          C83   1.272       .  A
C79         C914   1.493       .  S
O80          C82   1.272       .  A
O81         Ni92   1.927       .  S
C82         C425   1.483       .  S
C82          O88   1.279       .  A
C83         C369   1.489       .  S
H84          O85   0.966       .  S
O85         Ni93   1.911   1_554  S
O85         Ni87   1.918       .  S
O85         Ni92   1.918       .  S
O86         Ni87   1.953       .  S
Ni87         O91   1.923       .  S
Ni87         O89   1.901       .  S
O88         Ni93   1.949       .  S
C90         C789   1.488       .  S
C90          O91   1.270       .  A
O95        Ni101   1.916       .  S
O95         C116   1.268   1_554  A
O96        Ni119   1.925       .  S
O96         C105   1.273       .  A
O97        Ni101   1.916       .  S
O97        Ni119   1.922       .  S
O97        Ni113   1.922   1_554  S
O97         H120   0.964       .  S
C98         C285   1.472       .  S
C98         O115   1.266       .  A
C98         O107   1.272       .  A
O99        Ni118   1.928       .  S
O99         C105   1.272   1_556  A
O100       Ni118   1.907       .  S
O100        C102   1.271       .  A
Ni101       O104   1.916       .  S
Ni101       O106   1.898       .  S
C102        C354   1.472       .  S
C102        O112   1.277       .  A
O103       Ni119   1.914       .  S
O103        C109   1.269       .  A
O104        C109   1.267       .  A
C105        C774   1.490       .  S
O106        C108   1.271       .  A
O107       Ni118   1.937       .  S
C108        C257   1.486       .  S
C108        O114   1.283       .  A
C109        C313   1.491       .  S
H110        O111   0.966       .  S
O111       Ni119   1.925       .  S
O111       Ni113   1.920   1_554  S
O111       Ni118   1.923   1_554  S
O112       Ni113   1.947       .  S
Ni113       O117   1.918       .  S
Ni113       O115   1.901       .  S
O114       Ni119   1.962       .  S
C116        C873   1.488       .  S
C116        O117   1.269       .  A
N121        C126   1.351       .  A
N121        C125   1.350   1_455  A
N121        H153   1.039       .  S
N122        C129   1.351       .  A
N122        C130   1.350       .  A
N123        C128   1.354       .  A
N123        C127   1.354   1_455  A
N123        H154   1.039       .  S
N124        C131   1.349       .  A
N124        C132   1.348       .  A
C125        C133   1.387       .  A
C125        C141   1.410       .  A
C126        C142   1.410       .  A
C126        C134   1.387       .  A
C127        C135   1.387       .  A
C127        C144   1.418       .  A
C128        C143   1.416       .  A
C128        C136   1.387       .  A
C129        C141   1.410       .  A
C129        C137   1.384       .  A
C130        C144   1.414       .  A
C130        C138   1.387       .  A
C131        C139   1.386       .  A
C131        C142   1.408       .  A
C132        C140   1.386       .  A
C132        C143   1.408       .  A
C133        C134   1.372   1_655  A
C133        H145   1.082       .  S
C134        H146   1.082       .  S
C135        C136   1.375   1_655  A
C135        H147   1.082       .  S
C136        H148   1.083       .  S
C137        C138   1.376       .  A
C137        H149   1.082       .  S
C138        H150   1.082       .  S
C139        C140   1.375       .  A
C139        H151   1.082       .  S
C140        H152   1.082       .  S
C141        C550   1.484       .  S
C142        C690   1.480       .  S
C143        C649   1.482       .  S
C144        C578   1.492       .  S
N155        C160   1.350   1_655  A
N155        C159   1.350       .  A
N155        H187   1.038       .  S
N156        C163   1.349       .  A
N156        C164   1.348       .  A
N157        C162   1.354   1_655  A
N157        C161   1.354       .  A
N157        H188   1.038       .  S
N158        C165   1.351       .  A
N158        C166   1.349       .  A
C159        C167   1.387       .  A
C159        C175   1.410       .  A
C160        C176   1.410       .  A
C160        C168   1.388       .  A
C161        C169   1.388       .  A
C161        C178   1.416       .  A
C162        C177   1.416       .  A
C162        C170   1.387       .  A
C163        C175   1.408       .  A
C163        C171   1.385       .  A
C164        C178   1.409       .  A
C164        C172   1.386       .  A
C165        C173   1.385       .  A
C165        C176   1.410       .  A
C166        C174   1.386       .  A
C166        C177   1.411       .  A
C167        C168   1.369   1_655  A
C167        H179   1.083       .  S
C168        H180   1.082       .  S
C169        C170   1.374   1_655  A
C169        H181   1.082       .  S
C170        H182   1.082       .  S
C171        C172   1.374       .  A
C171        H183   1.082       .  S
C172        H184   1.082       .  S
C173        C174   1.376       .  A
C173        H185   1.082       .  S
C174        H186   1.082       .  S
C175        C453   1.478       .  S
C176        C326   1.480       .  S
C177        C341   1.486       .  S
C178        C438   1.482       .  S
N189        C194   1.358       .  A
N189        C193   1.358       .  A
N189        H221   1.038       .  S
N190        C197   1.352       .  A
N190        C198   1.353       .  A
N191        C196   1.356       .  A
N191        C195   1.356       .  A
N191        H222   1.035       .  S
N192        C199   1.352       .  A
N192        C200   1.353       .  A
C193        C201   1.387       .  A
C193        C209   1.421       .  A
C194        C210   1.422       .  A
C194        C202   1.388       .  A
C195        C203   1.388       .  A
C195        C212   1.421       .  A
C196        C211   1.421       .  A
C196        C204   1.388       .  A
C197        C209   1.416       .  A
C197        C205   1.386       .  A
C198        C212   1.418       .  A
C198        C206   1.386       .  A
C199        C207   1.387       .  A
C199        C210   1.418       .  A
C200        C208   1.386       .  A
C200        C211   1.417       .  A
C201        C202   1.369       .  A
C201        H213   1.082       .  S
C202        H214   1.082       .  S
C203        C204   1.365       .  A
C203        H215   1.082       .  S
C204        H216   1.081       .  S
C205        C206   1.372       .  A
C205        H217   1.082       .  S
C206        H218   1.082       .  S
C207        C208   1.374       .  A
C207        H219   1.082       .  S
C208        H220   1.082       .  S
C209        C270   1.492       .  S
C210        C410   1.496       .  S
C211        C382   1.492       .  S
C212        C298   1.496       .  S
N223        C228   1.350       .  A
N223        C227   1.350       .  A
N223        H255   1.040       .  S
N224        C231   1.352       .  A
N224        C232   1.350       .  A
N225        C230   1.353       .  A
N225        C229   1.354       .  A
N225        H256   1.037       .  S
N226        C233   1.351       .  A
N226        C234   1.348       .  A
C227        C235   1.386       .  A
C227        C243   1.407       .  A
C228        C244   1.411       .  A
C228        C236   1.387       .  A
C229        C237   1.387       .  A
C229        C246   1.416       .  A
C230        C245   1.417       .  A
C230        C238   1.388       .  A
C231        C243   1.411       .  A
C231        C239   1.384       .  A
C232        C246   1.415       .  A
C232        C240   1.387       .  A
C233        C241   1.386       .  A
C233        C244   1.412       .  A
C234        C242   1.387       .  A
C234        C245   1.412       .  A
C235        C236   1.372       .  A
C235        H247   1.082       .  S
C236        H248   1.082       .  S
C237        C238   1.374       .  A
C237        H249   1.082       .  S
C238        H250   1.082       .  S
C239        C240   1.378       .  A
C239        H251   1.082       .  S
C240        H252   1.082       .  S
C241        C242   1.378       .  A
C241        H253   1.082       .  S
C242        H254   1.082       .  S
C243        C606   1.484       .  S
C244        C509   1.490       .  S
C245        C494   1.483       .  S
C246        C634   1.488       .  S
C257        C258   1.415       .  A
C257        C262   1.407       .  A
C258        C259   1.410       .  A
C258        N263   1.438       .  S
C259        C260   1.402       .  A
C259        H264   1.084       .  S
C260        C261   1.408       .  A
C260        C265   1.484       .  S
C261        C262   1.406       .  A
C261        N266   1.438       .  S
C262        H267   1.084       .  S
N263        H283   1.045       .  S
N263        H284   1.046       .  S
C265        C268   1.403       .  A
C265        C272   1.407       .  A
N266        H281   1.046       .  S
N266        H282   1.046       .  S
C268        C269   1.407       .  A
C268        H273   1.084       .  S
C269        C270   1.411       .  A
C269        N274   1.438       .  S
C270        C271   1.404       .  A
C271        C272   1.406       .  A
C271        H275   1.084       .  S
C272        N276   1.432       .  S
N274        H277   1.045       .  S
N274        H278   1.045       .  S
N276        H279   1.045       .  S
N276        H280   1.045       .  S
C285        C286   1.407       .  A
C285        C290   1.401       .  A
C286        C287   1.408       .  A
C286        N291   1.437       .  S
C287        C288   1.409       .  A
C287        H292   1.083       .  S
C288        C289   1.413       .  A
C288        C293   1.493       .  S
C289        C290   1.405       .  A
C289        N294   1.438       .  S
C290        H295   1.084       .  S
N291        H311   1.046       .  S
N291        H312   1.046       .  S
C293        C296   1.406       .  A
C293        C300   1.415       .  A
N294        H309   1.046       .  S
N294        H310   1.046       .  S
C296        C297   1.403       .  A
C296        H301   1.083       .  S
C297        C298   1.409       .  A
C297        N302   1.432       .  S
C298        C299   1.403       .  A
C299        C300   1.407       .  A
C299        H303   1.083       .  S
C300        N304   1.437       .  S
N302        H305   1.046       .  S
N302        H306   1.046       .  S
N304        H307   1.046       .  S
N304        H308   1.046       .  S
C313        C314   1.423       .  A
C313        C318   1.408       .  A
C314        C315   1.399       .  A
C314        N319   1.439       .  S
C315        C316   1.396       .  A
C315        H320   1.084       .  S
C316        C317   1.410       .  A
C316        C321   1.481       .  S
C317        C318   1.408       .  A
C317        N322   1.438       .  S
C318        H323   1.083       .  S
N319        H339   1.046       .  S
N319        H340   1.046       .  S
C321        C324   1.403       .  A
C321        C328   1.411       .  A
N322        H337   1.046       .  S
N322        H338   1.046       .  S
C324        C325   1.400       .  A
C324        H329   1.084       .  S
C325        C326   1.416       .  A
C325        N330   1.438       .  S
C326        C327   1.401       .  A
C327        C328   1.402       .  A
C327        H331   1.084       .  S
C328        N332   1.438       .  S
N330        H333   1.046       .  S
N330        H334   1.044       .  S
N332        H335   1.046       .  S
N332        H336   1.046       .  S
C341        C342   1.409       .  A
C341        C346   1.403       .  A
C342        C343   1.403       .  A
C342        N347   1.438       .  S
C343        C344   1.403       .  A
C343        H348   1.084       .  S
C344        C345   1.410       .  A
C344        C349   1.483       .  S
C345        C346   1.408       .  A
C345        N350   1.437       .  S
C346        H351   1.084       .  S
N347        H367   1.045       .  S
N347        H368   1.046       .  S
C349        C352   1.405       .  A
C349        C356   1.409       .  A
N350        H365   1.046       .  S
N350        H366   1.046       .  S
C352        C353   1.408       .  A
C352        H357   1.084       .  S
C353        C354   1.408       .  A
C353        N358   1.437       .  S
C354        C355   1.402       .  A
C355        C356   1.405       .  A
C355        H359   1.084       .  S
C356        N360   1.437       .  S
N358        H361   1.046       .  S
N358        H362   1.046       .  S
N360        H363   1.046       .  S
N360        H364   1.046       .  S
C369        C370   1.416       .  A
C369        C374   1.409       .  A
C370        C371   1.406       .  A
C370        N375   1.438       .  S
C371        C372   1.403       .  A
C371        H376   1.084       .  S
C372        C373   1.408       .  A
C372        C377   1.486       .  S
C373        C374   1.405       .  A
C373        N378   1.438       .  S
C374        H379   1.083       .  S
N375        H395   1.046       .  S
N375        H396   1.046       .  S
C377        C380   1.403       .  A
C377        C384   1.411       .  A
N378        H393   1.046       .  S
N378        H394   1.046       .  S
C380        C381   1.403       .  A
C380        H385   1.084       .  S
C381        C382   1.419       .  A
C381        N386   1.438       .  S
C382        C383   1.402       .  A
C383        C384   1.405       .  A
C383        H387   1.084       .  S
C384        N388   1.438       .  S
N386        H389   1.046       .  S
N386        H390   1.044       .  S
N388        H391   1.046       .  S
N388        H392   1.046       .  S
C397        C398   1.414       .  A
C397        C402   1.406       .  A
C398        C399   1.407       .  A
C398        N403   1.438       .  S
C399        C400   1.402       .  A
C399        H404   1.084       .  S
C400        C401   1.409       .  A
C400        C405   1.483       .  S
C401        C402   1.407       .  A
C401        N406   1.438       .  S
C402        H407   1.084       .  S
N403        H423   1.045       .  S
N403        H424   1.046       .  S
C405        C408   1.402       .  A
C405        C412   1.409       .  A
N406        H421   1.046       .  S
N406        H422   1.046       .  S
C408        C409   1.407       .  A
C408        H413   1.084       .  S
C409        C410   1.421       .  A
C409        N414   1.438       .  S
C410        C411   1.402       .  A
C411        C412   1.403       .  A
C411        H415   1.084       .  S
C412        N416   1.438       .  S
N414        H417   1.045       .  S
N414        H418   1.043       .  S
N416        H419   1.045       .  S
N416        H420   1.046       .  S
C425        C426   1.417       .  A
C425        C430   1.406       .  A
C426        C427   1.406       .  A
C426        N431   1.438       .  S
C427        C428   1.399       .  A
C427        H432   1.084       .  S
C428        C429   1.407       .  A
C428        C433   1.476       .  S
C429        C430   1.404       .  A
C429        N434   1.438       .  S
C430        H435   1.084       .  S
N431        H451   1.045       .  S
N431        H452   1.046       .  S
C433        C436   1.400       .  A
C433        C440   1.407       .  A
N434        H449   1.046       .  S
N434        H450   1.046       .  S
C436        C437   1.397       .  A
C436        H441   1.084       .  S
C437        C438   1.415       .  A
C437        N442   1.439       .  S
C438        C439   1.404       .  A
C439        C440   1.407       .  A
C439        H443   1.084       .  S
C440        N444   1.437       .  S
N442        H445   1.046       .  S
N442        H446   1.043       .  S
N444        H447   1.046       .  S
N444        H448   1.045       .  S
C453        C454   1.409       .  A
C453        C458   1.401       .  A
C454        C455   1.404       .  A
C454        N459   1.438       .  S
C455        C456   1.402       .  A
C455        H460   1.084       .  S
C456        C457   1.406       .  A
C456        C461   1.470       .  S
C457        C458   1.398       .  A
C457        N462   1.438       .  S
C458        H463   1.084       .  S
N459        H479   1.046       .  S
N459        H480   1.046       .  S
C461        C464   1.401       .  A
C461        C468   1.403       .  A
N462        H477   1.046       .  S
N462        H478   1.046       .  S
C464        C465   1.403       .  A
C464        H469   1.084       .  S
C465        C466   1.414       .  A
C465        N470   1.437       .  S
C466        C467   1.409       .  A
C467        C468   1.400       .  A
C467        H471   1.083       .  S
C468        N472   1.438       .  S
N470        H473   1.046       .  S
N470        H474   1.046       .  S
N472        H475   1.046       .  S
N472        H476   1.046       .  S
C481        C482   1.412       .  A
C481        C486   1.405       .  A
C482        C483   1.401       .  A
C482        N487   1.438       .  S
C483        C484   1.403       .  A
C483        H488   1.084       .  S
C484        C485   1.413       .  A
C484        C489   1.486       .  S
C485        C486   1.407       .  A
C485        N490   1.438       .  S
C486        H491   1.084       .  S
N487        H507   1.045       .  S
N487        H508   1.046       .  S
C489        C492   1.404       .  A
C489        C496   1.414       .  A
N490        H505   1.046       .  S
N490        H506   1.045       .  S
C492        C493   1.402       .  A
C492        H497   1.083       .  S
C493        C494   1.416       .  A
C493        N498   1.438       .  S
C494        C495   1.399       .  A
C495        C496   1.401       .  A
C495        H499   1.084       .  S
C496        N500   1.439       .  S
N498        H501   1.046       .  S
N498        H502   1.044       .  S
N500        H503   1.046       .  S
N500        H504   1.045       .  S
C509        C510   1.414       .  A
C509        C514   1.403       .  A
C510        C511   1.401       .  A
C510        N515   1.439       .  S
C511        C512   1.401       .  A
C511        H516   1.084       .  S
C512        C513   1.412       .  A
C512        C517   1.484       .  S
C513        C514   1.407       .  A
C513        N518   1.437       .  S
C514        H519   1.083       .  S
N515        H535   1.045       .  S
N515        H536   1.046       .  S
C517        C520   1.404       .  A
C517        C524   1.410       .  A
N518        H533   1.046       .  S
N518        H534   1.046       .  S
C520        C521   1.407       .  A
C520        H525   1.084       .  S
C521        C522   1.413       .  A
C521        N526   1.438       .  S
C522        C523   1.404       .  A
C523        C524   1.403       .  A
C523        H527   1.084       .  S
C524        N528   1.438       .  S
N526        H529   1.046       .  S
N526        H530   1.046       .  S
N528        H531   1.046       .  S
N528        H532   1.046       .  S
C537        C538   1.419       .  A
C537        C542   1.410       .  A
C538        C539   1.407       .  A
C538        N543   1.438       .  S
C539        C540   1.402       .  A
C539        H544   1.084       .  S
C540        C541   1.406       .  A
C540        C545   1.483       .  S
C541        C542   1.404       .  A
C541        N546   1.438       .  S
C542        H547   1.083       .  S
N543        H563   1.046       .  S
N543        H564   1.046       .  S
C545        C548   1.402       .  A
C545        C552   1.410       .  A
N546        H561   1.045       .  S
N546        H562   1.046       .  S
C548        C549   1.400       .  A
C548        H553   1.084       .  S
C549        C550   1.416       .  A
C549        N554   1.438       .  S
C550        C551   1.402       .  A
C551        C552   1.405       .  A
C551        H555   1.084       .  S
C552        N556   1.437       .  S
N554        H557   1.045       .  S
N554        H558   1.044       .  S
N556        H559   1.046       .  S
N556        H560   1.046       .  S
C565        C566   1.412       .  A
C565        C570   1.402       .  A
C566        C567   1.408       .  A
C566        N571   1.438       .  S
C567        C568   1.403       .  A
C567        H572   1.084       .  S
C568        C569   1.408       .  A
C568        C573   1.479       .  S
C569        C570   1.403       .  A
C569        N574   1.438       .  S
C570        H575   1.084       .  S
N571        H591   1.045       .  S
N571        H592   1.046       .  S
C573        C576   1.401       .  A
C573        C580   1.408       .  A
N574        H589   1.046       .  S
N574        H590   1.046       .  S
C576        C577   1.403       .  A
C576        H581   1.084       .  S
C577        C578   1.420       .  A
C577        N582   1.438       .  S
C578        C579   1.404       .  A
C579        C580   1.404       .  A
C579        H583   1.084       .  S
C580        N584   1.438       .  S
N582        H585   1.046       .  S
N582        H586   1.043       .  S
N584        H587   1.046       .  S
N584        H588   1.046       .  S
C593        C594   1.419       .  A
C593        C598   1.404       .  A
C594        C595   1.404       .  A
C594        N599   1.439       .  S
C595        C596   1.398       .  A
C595        H600   1.084       .  S
C596        C597   1.410       .  A
C596        C601   1.481       .  S
C597        C598   1.408       .  A
C597        N602   1.437       .  S
C598        H603   1.083       .  S
N599        H619   1.046       .  S
N599        H620   1.046       .  S
C601        C604   1.401       .  A
C601        C608   1.411       .  A
N602        H617   1.046       .  S
N602        H618   1.046       .  S
C604        C605   1.404       .  A
C604        H609   1.084       .  S
C605        C606   1.410       .  A
C605        N610   1.438       .  S
C606        C607   1.402       .  A
C607        C608   1.408       .  A
C607        H611   1.083       .  S
C608        N612   1.437       .  S
N610        H613   1.046       .  S
N610        H614   1.045       .  S
N612        H615   1.046       .  S
N612        H616   1.046       .  S
C621        C622   1.412       .  A
C621        C626   1.405       .  A
C622        C623   1.407       .  A
C622        N627   1.438       .  S
C623        C624   1.402       .  A
C623        H628   1.084       .  S
C624        C625   1.409       .  A
C624        C629   1.482       .  S
C625        C626   1.408       .  A
C625        N630   1.437       .  S
C626        H631   1.084       .  S
N627        H647   1.046       .  S
N627        H648   1.046       .  S
C629        C632   1.402       .  A
C629        C636   1.418       .  A
N630        H645   1.046       .  S
N630        H646   1.045       .  S
C632        C633   1.403       .  A
C632        H637   1.084       .  S
C633        C634   1.408       .  A
C633        N638   1.438       .  S
C634        C635   1.404       .  A
C635        C636   1.406       .  A
C635        H639   1.084       .  S
C636        N640   1.438       .  S
N638        H641   1.046       .  S
N638        H642   1.046       .  S
N640        H643   1.045       .  S
N640        H644   1.043       .  S
C649        C650   1.415       .  A
C649        C654   1.403       .  A
C650        C651   1.397       .  A
C650        N655   1.439       .  S
C651        C652   1.402       .  A
C651        H656   1.084       .  S
C652        C653   1.409       .  A
C652        C657   1.480       .  S
C653        C654   1.406       .  A
C653        N658   1.437       .  S
C654        H659   1.084       .  S
N655        H675   1.043       .  S
N655        H676   1.046       .  S
C657        C660   1.401       .  A
C657        C664   1.407       .  A
N658        H673   1.046       .  S
N658        H674   1.046       .  S
C660        C661   1.410       .  A
C660        H665   1.084       .  S
C661        C662   1.420       .  A
C661        N666   1.437       .  S
C662        C663   1.408       .  A
C663        C664   1.400       .  A
C663        H667   1.083       .  S
C664        N668   1.439       .  S
N666        H669   1.046       .  S
N666        H670   1.046       .  S
N668        H671   1.045       .  S
N668        H672   1.046       .  S
C677        C678   1.415       .  A
C677        C682   1.407       .  A
C678        C679   1.404       .  A
C678        N683   1.438       .  S
C679        C680   1.400       .  A
C679        H684   1.084       .  S
C680        C681   1.405       .  A
C680        C685   1.474       .  S
C681        C682   1.403       .  A
C681        N686   1.438       .  S
C682        H687   1.084       .  S
N683        H703   1.046       .  S
N683        H704   1.046       .  S
C685        C688   1.403       .  A
C685        C692   1.408       .  A
N686        H701   1.046       .  S
N686        H702   1.046       .  S
C688        C689   1.405       .  A
C688        H693   1.084       .  S
C689        C690   1.409       .  A
C689        N694   1.437       .  S
C690        C691   1.401       .  A
C691        C692   1.401       .  A
C691        H695   1.084       .  S
C692        N696   1.437       .  S
N694        H697   1.046       .  S
N694        H698   1.046       .  S
N696        H699   1.046       .  S
N696        H700   1.046       .  S
C705        C706   1.421       .  A
C705        C710   1.408       .  A
C706        C707   1.401       .  A
C706        N711   1.440   1_554  S
C707        C708   1.402       .  A
C707        H712   1.084       .  S
C708        C709   1.413       .  A
C708        C713   1.497       .  S
C709        C710   1.416       .  A
C709        N714   1.437       .  S
C710        H715   1.084       .  S
N711        H731   1.042       .  S
N711        H732   1.046       .  S
C713        C716   1.407       .  A
C713        C720   1.411       .  A
N714        H729   1.046       .  S
N714        H730   1.045       .  S
C716        C717   1.416       .  A
C716        H721   1.083       .  S
C717        C718   1.416       .  A
C717        N722   1.437       .  S
C718        C719   1.406       .  A
C719        C720   1.405       .  A
C719        H723   1.084   1_554  S
C720        N724   1.438   1_554  S
N722        H725   1.046       .  S
N722        H726   1.045       .  S
N724        H727   1.046       .  S
N724        H728   1.046   1_556  S
C733        C734   1.410       .  A
C733        C738   1.408       .  A
C734        C735   1.404       .  A
C734        N739   1.431       .  S
C735        C736   1.404       .  A
C735        H740   1.084       .  S
C736        C737   1.411       .  A
C736        C741   1.492       .  S
C737        C738   1.413       .  A
C737        N742   1.437       .  S
C738        H743   1.084       .  S
N739        H759   1.046   1_554  S
N739        H760   1.045   1_554  S
C741        C744   1.406       .  A
C741        C748   1.408       .  A
N742        H757   1.046       .  S
N742        H758   1.046       .  S
C744        C745   1.417       .  A
C744        H749   1.083       .  S
C745        C746   1.418       .  A
C745        N750   1.437       .  S
C746        C747   1.407       .  A
C747        C748   1.403       .  A
C747        H751   1.084   1_554  S
C748        N752   1.438       .  S
N750        H753   1.046       .  S
N750        H754   1.045       .  S
N752        H755   1.046   1_554  S
N752        H756   1.046       .  S
C761        C762   1.414       .  A
C761        C766   1.406       .  A
C762        C763   1.413       .  A
C762        N767   1.437       .  S
C763        C764   1.404       .  A
C763        H768   1.083       .  S
C764        C765   1.410       .  A
C764        C769   1.493       .  S
C765        C766   1.410       .  A
C765        N770   1.438       .  S
C766        H771   1.080       .  S
N767        H787   1.046       .  S
N767        H788   1.046       .  S
C769        C772   1.406       .  A
C769        C776   1.410       .  A
N770        H785   1.046   1_554  S
N770        H786   1.045   1_554  S
C772        C773   1.417       .  A
C772        H777   1.083       .  S
C773        C774   1.415       .  A
C773        N778   1.437       .  S
C774        C775   1.404       .  A
C775        C776   1.407       .  A
C775        H779   1.084       .  S
C776        N780   1.438       .  S
N778        H781   1.046       .  S
N778        H782   1.046       .  S
N780        H783   1.046       .  S
N780        H784   1.046       .  S
C789        C790   1.413       .  A
C789        C794   1.403       .  A
C790        C791   1.415       .  A
C790        N795   1.436       .  S
C791        C792   1.407       .  A
C791        H796   1.083       .  S
C792        C793   1.412       .  A
C792        C797   1.497       .  S
C793        C794   1.405       .  A
C793        N798   1.438       .  S
C794        H799   1.084       .  S
N795        H815   1.045       .  S
N795        H816   1.046       .  S
C797        C800   1.406       .  A
C797        C804   1.414       .  A
N798        H813   1.046       .  S
N798        H814   1.046       .  S
C800        C801   1.405       .  A
C800        H805   1.084       .  S
C801        C802   1.411       .  A
C801        N806   1.439   1_554  S
C802        C803   1.403       .  A
C803        C804   1.412       .  A
C803        H807   1.084       .  S
C804        N808   1.437       .  S
N806        H809   1.046       .  S
N806        H810   1.044       .  S
N808        H811   1.046       .  S
N808        H812   1.046       .  S
C817        C818   1.411       .  A
C817        C822   1.402       .  A
C818        C819   1.407       .  A
C818        N823   1.438   1_556  S
C819        C820   1.402       .  A
C819        H824   1.084       .  S
C820        C821   1.413       .  A
C820        C825   1.487       .  S
C821        C822   1.410       .  A
C821        N826   1.437       .  S
C822        H827   1.084       .  S
N823        H843   1.046   1_554  S
N823        H844   1.046       .  S
C825        C828   1.399       .  A
C825        C832   1.410       .  A
N826        H841   1.046       .  S
N826        H842   1.045       .  S
C828        C829   1.405       .  A
C828        H833   1.084       .  S
C829        C830   1.418       .  A
C829        N834   1.438   1_556  S
C830        C831   1.408       .  A
C831        C832   1.412       .  A
C831        H835   1.082       .  S
C832        N836   1.437       .  S
N834        H837   1.045       .  S
N834        H838   1.046       .  S
N836        H839   1.046       .  S
N836        H840   1.045       .  S
C845        C846   1.409       .  A
C845        C850   1.405       .  A
C846        C847   1.410       .  A
C846        N851   1.437       .  S
C847        C848   1.406       .  A
C847        H852   1.084       .  S
C848        C849   1.412       .  A
C848        C853   1.496       .  S
C849        C850   1.413       .  A
C849        N854   1.437       .  S
C850        H855   1.084       .  S
N851        H871   1.046       .  S
N851        H872   1.046       .  S
C853        C856   1.407       .  A
C853        C860   1.411       .  A
N854        H869   1.046       .  S
N854        H870   1.046       .  S
C856        C857   1.414       .  A
C856        H861   1.084   1_556  S
C857        C858   1.413       .  A
C857        N862   1.437   1_556  S
C858        C859   1.404       .  A
C859        C860   1.409       .  A
C859        H863   1.084       .  S
C860        N864   1.437       .  S
N862        H865   1.046       .  S
N862        H866   1.046       .  S
N864        H867   1.046       .  S
N864        H868   1.046       .  S
C873        C874   1.416       .  A
C873        C878   1.406       .  A
C874        C875   1.405       .  A
C874        N879   1.438   1_556  S
C875        C876   1.400       .  A
C875        H880   1.084       .  S
C876        C877   1.411       .  A
C876        C881   1.488       .  S
C877        C878   1.412       .  A
C877        N882   1.437       .  S
C878        H883   1.084       .  S
N879        H899   1.046       .  S
N879        H900   1.046       .  S
C881        C884   1.402       .  A
C881        C888   1.410       .  A
N882        H897   1.046       .  S
N882        H898   1.046       .  S
C884        C885   1.406       .  A
C884        H889   1.084       .  S
C885        C886   1.419       .  A
C885        N890   1.438       .  S
C886        C887   1.404       .  A
C887        C888   1.407       .  A
C887        H891   1.083   1_556  S
C888        N892   1.437   1_556  S
N890        H893   1.045       .  S
N890        H894   1.043       .  S
N892        H895   1.046       .  S
N892        H896   1.045       .  S
C901        C902   1.411       .  A
C901        C906   1.406       .  A
C902        C903   1.406       .  A
C902        N907   1.438   1_556  S
C903        C904   1.404       .  A
C903        H908   1.084   1_556  S
C904        C905   1.414       .  A
C904        C909   1.500       .  S
C905        C906   1.417       .  A
C905        N910   1.437       .  S
C906        H911   1.083       .  S
N907        H927   1.045       .  S
N907        H928   1.045       .  S
C909        C912   1.410       .  A
C909        C916   1.411   1_556  A
N910        H925   1.045       .  S
N910        H926   1.046       .  S
C912        C913   1.417       .  A
C912        H917   1.083       .  S
C913        C914   1.413       .  A
C913        N918   1.437       .  S
C914        C915   1.406   1_556  A
C915        C916   1.406       .  A
C915        H919   1.084       .  S
C916        N920   1.438       .  S
N918        H921   1.046       .  S
N918        H922   1.046       .  S
N920        H923   1.046       .  S
N920        H924   1.046       .  S
