geometry optimzed in LAMMPS
_audit_creation_date              2020-11-30 
_audit_creation_method            'lammps2cif' 
_symmetry_space_group_name_H-M    'P1' 
_symmetry_Int_Tables_number       1 
_symmetry_cell_setting            triclinic 
loop_ 
_symmetry_equiv_pos_as_xyz 
  x,y,z 
_cell_length_a                    30.09073973 
_cell_length_b                    36.6237093118674 
_cell_length_c                    51.67388136142449 
_cell_angle_alpha                 89.96774509419514 
_cell_angle_beta                  89.69236619307338 
_cell_angle_gamma                 115.82667424974458 
loop_ 
_atom_site_label 
_atom_site_type_symbol 
_atom_site_fract_x 
_atom_site_fract_y 
_atom_site_fract_z 
_atom_site_charge 
O1          O  0.42717547  0.15518095  0.86446299    -0.80300
O2          O  0.31781692  0.24681676  0.81415505    -0.65000
O3          O  0.35242698  0.18092700  0.85925594    -1.11600
C4          C  0.28281383  0.08365759  0.79157210     1.06600
O5          O  0.24341182  0.19641074  0.81085292    -0.78200
O6          O  0.21561273  0.11876025  0.82712233    -0.65800
Ni7        Ni  0.41562184  0.20081829  0.87494701     1.34900
C8          C  0.22582448  0.10318307  0.84686038     0.85300
O9          O  0.35939806  0.26029773  0.86105604    -0.78800
O10         O  0.40994190  0.24801515  0.88744543    -0.89000
C11         C  0.27286167  0.23366679  0.80764313     0.84900
O12         O  0.45456225  0.23138820  0.84631150    -0.67200
O13         O  0.26075385  0.10515307  0.78519381    -0.86500
C14         C  0.44530381  0.24691462  0.82625188     0.85700
C15         C  0.38939249  0.27015443  0.88003124     1.07300
H16         H  0.34090757  0.17853471  0.79942130     0.39100
O17         O  0.31783454  0.17097925  0.81377456    -1.09200
O18         O  0.26968100  0.10983830  0.85273384    -0.65800
Ni19       Ni  0.33312160  0.13637129  0.83554632     1.26300
O20         O  0.40179025  0.24118451  0.82010998    -0.66100
O21         O  0.31245075  0.09274841  0.81074422    -0.78400
C22         C  0.39760140  0.11761683  0.86505062     0.85100
O23         O  0.35319125  0.10505492  0.85785149    -0.65500
Ni24       Ni  0.25420943  0.15121036  0.79885941     1.27400
Ni25       Ni  0.33787573  0.21583872  0.83703925     1.26100
H26         H  0.32905229  0.17330919  0.87316514     0.39600
C27         C  0.19867267  0.40984350  0.75747048     0.87000
C28         C  0.19128205  0.39722201  0.72892853    -0.53200
C29         C  0.16432635  0.35653994  0.72466289     0.10000
C30         C  0.14775147  0.33146474  0.74999471     0.20900
C31         C  0.14634806  0.39148273  0.76928942    -0.53900
C32         C  0.11964556  0.35068890  0.76577576     0.10100
C33         C  0.22117118  0.38327928  0.76987070    -0.53400
C34         C  0.19560053  0.34256571  0.76541898     0.10600
H35         H  0.20635539  0.41904298  0.71325564     0.15200
H36         H  0.12616587  0.29841947  0.74689478     0.00900
H37         H  0.13262290  0.40898095  0.78104683     0.15500
H38         H  0.25247028  0.39432948  0.78274184     0.15300
C39         C  0.47706323  0.44343373  0.90904328     0.87000
C40         C  0.45573393  0.47093569  0.89670887    -0.53200
C41         C  0.47329520  0.00492286  0.90105880     0.10000
C42         C  0.01904523  0.01625248  0.91818987     0.20900
C43         C  0.03009548  0.46242198  0.89810065    -0.53900
C44         C  0.04910993  0.99673559  0.90449738     0.10100
C45         C  0.48307344  0.45473843  0.93789289    -0.53400
C46         C  0.99922468  0.99163342  0.94323279     0.10600
H47         H  0.42653304  0.46110719  0.88261633     0.15200
H48         H  0.03967535  0.04938186  0.92145536     0.00900
H49         H  0.04413180  0.44581321  0.88570589     0.15500
H50         H  0.46844188  0.43230222  0.95325954     0.15300
O51         O  0.12176075  0.02230864  0.47990771    -0.80300
O52         O  0.42445709  0.42370747  0.53311090    -0.65000
O53         O  0.01612345  0.48623052  0.48148029    -1.11600
C54         C  0.03270794  0.09648056  0.53349000     1.06600
O55         O  0.38738314  0.46444985  0.53225594    -0.78200
O56         O  0.42560066  0.02805908  0.50050627    -0.65800
Ni57       Ni  0.06646480  0.47197906  0.47007692     1.34900
C58         C  0.45234102  0.04775945  0.48168531     0.85300
O59         O  0.45589686  0.40345141  0.48880246    -0.78800
O60         O  0.01819296  0.41902737  0.45972664    -0.89000
C61         C  0.38770578  0.43078301  0.53799189     0.84900
O62         O  0.07804346  0.44832172  0.50078922    -0.67200
O63         O  0.98774149  0.07342115  0.53906073    -0.86500
C64         C  0.05664795  0.43858264  0.52264857     0.85700
C65         C  0.47749104  0.39423642  0.47016988     1.07300
H66         H  0.01010577  0.00327019  0.53964012     0.39100
O67         O  0.99258001  0.00328210  0.52403611    -1.09200
O68         O  0.99687600  0.05245462  0.47902944    -0.65800
Ni69       Ni  0.04044200  0.03644004  0.49927749     1.26300
O70         O  0.01850476  0.44371283  0.52806399    -0.66100
O71         O  0.05950222  0.08541355  0.51921967    -0.78400
C72         C  0.12555363  0.05562427  0.47058750     0.85100
O73         O  0.09064254  0.06571183  0.47431129    -0.65500
Ni74       Ni  0.44138537  0.01737032  0.53424955     1.27400
Ni75       Ni  0.47158708  0.45363785  0.50729050     1.26100
H76         H  0.99703962  0.48601185  0.46644534     0.39600
C77         C  0.39522289  0.22688870  0.42948575     0.87000
C78         C  0.34125041  0.20134481  0.43748612    -0.53200
C79         C  0.31822365  0.16351452  0.42653826     0.10000
C80         C  0.35394883  0.15431804  0.40895874     0.20900
C81         C  0.42105681  0.19951905  0.43618776    -0.53900
C82         C  0.39858631  0.16114881  0.42623660     0.10100
C83         C  0.39586597  0.22655352  0.39976541    -0.53400
C84         C  0.37390349  0.18894146  0.38909043     0.10600
H85         H  0.32404084  0.21223115  0.45212367     0.15200
H86         H  0.33850381  0.12492447  0.39888744     0.00900
H87         H  0.45373634  0.20842247  0.44791341     0.15500
H88         H  0.41339400  0.25375533  0.38799115     0.15300
C89         C  0.11659761  0.26149719  0.57758254     0.87000
C90         C  0.11577183  0.26645930  0.60708249    -0.53200
C91         C  0.14107518  0.30544239  0.61579068     0.10000
C92         C  0.16499508  0.33665682  0.59360858     0.20900
C93         C  0.09786802  0.29166909  0.56643505    -0.53900
C94         C  0.12225763  0.33079661  0.57515560     0.10100
C95         C  0.17119938  0.28182946  0.56978541    -0.53400
C96         C  0.19667540  0.32068154  0.57786984     0.10600
H97         H  0.09592886  0.24100329  0.61995958     0.15200
H98         H  0.18585181  0.36830050  0.60045360     0.00900
H99         H  0.07048491  0.28441631  0.55139715     0.15500
H100        H  0.18798424  0.26745916  0.55725015     0.15300
O101        O  0.29454913  0.32770369  0.19618204    -0.80300
O102        O  0.19260599  0.41661156  0.13420614    -0.65000
O103        O  0.22447778  0.35806423  0.18652419    -1.11600
C104        C  0.13580759  0.24612061  0.13166946     1.06600
O105        O  0.11545081  0.37128268  0.13712303    -0.78200
O106        O  0.08423207  0.30137830  0.16375094    -0.65800
Ni107      Ni  0.28879808  0.37752509  0.20086583     1.34900
C108        C  0.09619084  0.28901427  0.18430072     0.85300
O109        O  0.23869050  0.43879884  0.17979561    -0.78800
O110        O  0.29004328  0.42928584  0.20756562    -0.89000
C111        C  0.14727616  0.40588387  0.12944047     0.84900
O112        O  0.32443976  0.39736798  0.16956592    -0.67200
O113        O  0.11265061  0.26636592  0.12426662    -0.86500
C114        C  0.31616193  0.40947327  0.14794701     0.85700
C115        C  0.27082182  0.45088777  0.19771359     1.07300
H116        H  0.20354924  0.34114694  0.12716619     0.39100
O117        O  0.18368113  0.33889339  0.14238702    -1.09200
O118        O  0.13860161  0.29025551  0.18738598    -0.65800
Ni119      Ni  0.19880007  0.30826951  0.16762055     1.26300
O120        O  0.27341524  0.40617650  0.14207338    -0.66100
O121        O  0.17162146  0.25935087  0.14761387    -0.78400
C122        C  0.26212332  0.29161118  0.19968074     0.85100
O123        O  0.21770761  0.28013454  0.19301024    -0.65500
Ni124      Ni  0.11690888  0.31965174  0.13127717     1.27400
Ni125      Ni  0.21115339  0.38916728  0.16057533     1.26100
H126        H  0.20271187  0.35544345  0.20094316     0.39600
C127        C  0.05728972  0.08001506  0.09092334     0.87000
C128        C  0.05660301  0.07902149  0.06108539    -0.53200
C129        C  0.03674684  0.04082212  0.05085436     0.10000
C130        C  0.52595813  0.50886218  0.07124267     0.20900
C131        C  0.50254745  0.05423639  0.09771959    -0.53900
C132        C  0.48823468  0.51728950  0.08753618     0.10100
C133        C  0.08333690  0.05375311  0.09895384    -0.53400
C134        C  0.07016061  0.51783065  0.08944037     0.10600
H135        H  0.06959265  0.10599717  0.04902620     0.15200
H136        H  0.51003614  0.47894935  0.06170269     0.00900
H137        H  0.48000051  0.06449995  0.10918855     0.15500
H138        H  0.11371956  0.06457096  0.11255436     0.15300
C139        C  0.35014154  0.12051624  0.23887242     0.87000
C140        C  0.32014495  0.14320584  0.23029445    -0.53200
C141        C  0.33628448  0.18153238  0.23984661     0.10000
C142        C  0.38194097  0.19440129  0.25734887     0.20900
C143        C  0.40302618  0.15030900  0.23010037    -0.53900
C144        C  0.42032559  0.18858072  0.24021192     0.10100
C145        C  0.35088099  0.12272912  0.26850201    -0.53400
C146        C  0.36731296  0.16109003  0.27818691     0.10600
H147        H  0.29061313  0.13122395  0.21622333     0.15200
H148        H  0.39491789  0.22529766  0.26554532     0.00900
H149        H  0.42401756  0.14336291  0.21542060     0.15500
H150        H  0.33896997  0.09606107  0.28082521     0.15300
C151        C  0.35991069  0.43114744  0.12993353    -0.04800
C152        C  0.35442579  0.44471089  0.10479302    -0.01900
C153        C  0.39645830  0.47083198  0.09017974     0.03100
C154        C  0.44415334  0.48528889  0.10079314    -0.04800
C155        C  0.44982949  0.47180319  0.12557702    -0.01900
C156        C  0.40894875  0.44278683  0.13906787     0.03100
C157        C  0.30584694  0.43234532  0.09367167     0.37700
C158        C  0.49766648  0.48916319  0.13818232     0.37700
C159        C  0.41893082  0.42605295  0.16266246     0.36200
C160        C  0.38748890  0.98324832  0.06437169     0.36200
N161        N  0.42756954  0.41320860  0.18145245    -0.38700
N162        N  0.38424415  0.99415351  0.04375081    -0.38700
N163        N  0.53501029  0.50287541  0.14894769    -0.38100
N164        N  0.26272286  0.92078865  0.08303179    -0.38100
C165        C  0.11840220  0.20400417  0.12206848    -0.04800
C166        C  0.07699124  0.17269306  0.13371735    -0.01900
C167        C  0.06242987  0.13213801  0.12635593     0.03100
C168        C  0.08165387  0.12289653  0.10332825    -0.04800
C169        C  0.12608431  0.15411315  0.09306729    -0.01900
C170        C  0.14453419  0.19427819  0.10269344     0.03100
C171        C  0.04875046  0.18181917  0.15336964     0.37700
C172        C  0.15464614  0.14504284  0.07359999     0.37700
C173        C  0.19017227  0.22579121  0.09253261     0.36200
C174        C  0.53439970  0.10079965  0.14495616     0.36200
N175        N  0.22672578  0.25098380  0.08460746    -0.38700
N176        N  0.51211464  0.07638630  0.16018791    -0.38700
N177        N  0.17776526  0.13827669  0.05800364    -0.38100
N178        N  0.02468074  0.18819760  0.16856813    -0.38100
C179        C  0.09113231  0.48799530  0.09653085    -0.04800
C180        C  0.06115565  0.44537366  0.09814864    -0.01900
C181        C  0.08146349  0.41888338  0.10609166     0.03100
C182        C  0.12986591  0.43424063  0.11637746    -0.04800
C183        C  0.16030540  0.47647727  0.11409735    -0.01900
C184        C  0.14215424  0.50226775  0.10241244     0.03100
C185        C  0.00887456  0.42722180  0.09238091     0.37700
C186        C  0.21034434  0.49426771  0.12401646     0.37700
C187        C  0.16992019  0.03710080  0.08664464     0.36200
C188        C  0.05234633  0.37545604  0.10263327     0.36200
N189        N  0.19734487  0.06772376  0.07776020    -0.38700
N190        N  0.02929980  0.34096148  0.09956642    -0.38700
N191        N  0.25093482  0.00121581  0.11259308    -0.38100
N192        N  0.46691890  0.41091955  0.08819547    -0.38100
C193        C  0.27808080  0.26182903  0.21002829    -0.04800
C194        C  0.27844032  0.25577189  0.23695271    -0.01900
C195        C  0.29828811  0.23017326  0.24691976     0.03100
C196        C  0.31667011  0.20975396  0.22985660    -0.04800
C197        C  0.31695359  0.21661796  0.20281870    -0.01900
C198        C  0.29747948  0.24240602  0.19301078     0.03100
C199        C  0.25887085  0.27633126  0.25438205     0.37700
C200        C  0.34032231  0.19941133  0.18510751     0.37700
C201        C  0.29834663  0.24978410  0.16535860     0.36200
C202        C  0.30082474  0.22600242  0.27469061     0.36200
N203        N  0.29900102  0.25583572  0.14334447    -0.38700
N204        N  0.30313533  0.22395991  0.29694841    -0.38700
N205        N  0.35910051  0.18575967  0.17104554    -0.38100
N206        N  0.24314525  0.29264599  0.26827499    -0.38100
C207        C  0.29193958  0.99737669  0.20502623    -0.04800
C208        C  0.25930378  0.01246301  0.21497670    -0.01900
C209        C  0.27778815  0.05087229  0.22720832     0.03100
C210        C  0.32962715  0.07618440  0.22869369    -0.04800
C211        C  0.36145014  0.05842831  0.22158552    -0.01900
C212        C  0.34333559  0.02126233  0.20820547     0.03100
C213        C  0.20626645  0.98806707  0.21346286     0.37700
C214        C  0.41205120  0.07493436  0.23045891     0.37700
C215        C  0.37468644  0.50377848  0.19875344     0.36200
C216        C  0.24256594  0.06243919  0.23970738     0.36200
N217        N  0.40340331  0.49351801  0.19078458    -0.38700
N218        N  0.21354596  0.07092776  0.24933121    -0.38700
N219        N  0.45255288  0.08642782  0.23706101    -0.38100
N220        N  0.16399736  0.96873765  0.21216723    -0.38100
C221        C  0.05759140  0.27020668  0.20488012    -0.04800
C222        C  0.05524541  0.23690332  0.21982202    -0.01900
C223        C  0.51199401  0.21291333  0.23388079     0.03100
C224        C  0.47024096  0.22109475  0.23271710    -0.04800
C225        C  0.47626049  0.25853705  0.22200281    -0.01900
C226        C  0.01978016  0.28297327  0.20815837     0.03100
C227        C  0.09586693  0.22557952  0.21995524     0.37700
C228        C  0.43919851  0.27328648  0.22558884     0.37700
C229        C  0.02566671  0.32148656  0.19741459     0.36200
C230        C  0.51155164  0.18120597  0.25086331     0.36200
N231        N  0.03021267  0.35223329  0.18901752    -0.38700
N232        N  0.51272719  0.15739767  0.26522918    -0.38700
N233        N  0.41176267  0.28731292  0.22863938    -0.38100
N234        N  0.12791796  0.21615666  0.22031700    -0.38100
C235        C  0.37211313  0.18216183  0.36065345    -0.04800
C236        C  0.32638582  0.16117884  0.34813837    -0.01900
C237        C  0.32494598  0.15358941  0.32133015     0.03100
C238        C  0.36899800  0.16930393  0.30649778    -0.04800
C239        C  0.41439411  0.19262809  0.31884825    -0.01900
C240        C  0.41617258  0.19730116  0.34593465     0.03100
C241        C  0.28054262  0.14920894  0.36246205     0.37700
C242        C  0.45954395  0.21298859  0.30402873     0.37700
C243        C  0.46366799  0.21670101  0.35871289     0.36200
C244        C  0.27761842  0.13168470  0.30885124     0.36200
N245        N  0.50153353  0.23181380  0.36891069    -0.38700
N246        N  0.23946651  0.11453203  0.29923603    -0.38700
N247        N  0.49648691  0.23102755  0.29322479    -0.38100
N248        N  0.24358773  0.13994063  0.37346202    -0.38100
C249        C  0.17167716  0.08261352  0.45618335    -0.04800
C250        C  0.20142196  0.06594302  0.44450730    -0.01900
C251        C  0.24881800  0.09140229  0.43463648     0.03100
C252        C  0.26526413  0.13424530  0.43341048    -0.04800
C253        C  0.23079426  0.14954969  0.44061315    -0.01900
C254        C  0.18660006  0.12478052  0.45379487     0.03100
C255        C  0.18312446  0.02219702  0.44200391     0.37700
C256        C  0.23887501  0.19032389  0.43348193     0.37700
C257        C  0.15775884  0.14352527  0.46558876     0.36200
C258        C  0.27952778  0.07196345  0.42666255     0.36200
N259        N  0.13508441  0.15857851  0.47519229    -0.38700
N260        N  0.30217958  0.05469069  0.42045510    -0.38700
N261        N  0.24453636  0.22269399  0.42795987    -0.38100
N262        N  0.16861526  0.98744666  0.43978010    -0.38100
C263        C  0.45502182  0.35176156  0.46047439    -0.04800
C264        C  0.46690845  0.32239802  0.47211318    -0.01900
C265        C  0.44372058  0.28149582  0.46419318     0.03100
C266        C  0.41492590  0.27030644  0.44127669    -0.04800
C267        C  0.40076521  0.29980586  0.43057134    -0.01900
C268        C  0.42100020  0.34010123  0.44006613     0.03100
C269        C  0.00505104  0.33404195  0.49153027     0.37700
C270        C  0.36375232  0.28896715  0.41045180     0.37700
C271        C  0.40755817  0.37000919  0.42850732     0.36200
C272        C  0.44448762  0.25125269  0.48206344     0.36200
N273        N  0.39709836  0.39401234  0.41931802    -0.38700
N274        N  0.44502814  0.22762900  0.49680209    -0.38700
N275        N  0.33461031  0.28080900  0.39423868    -0.38100
N276        N  0.03647157  0.34205817  0.50637571    -0.38100
C277        C  0.43144069  0.06940530  0.46395471    -0.04800
C278        C  0.39275576  0.07877798  0.47309386    -0.01900
C279        C  0.38380504  0.10953307  0.46119043     0.03100
C280        C  0.40753084  0.12735077  0.43775138    -0.04800
C281        C  0.43990029  0.11338169  0.42618409    -0.01900
C282        C  0.45293923  0.08543286  0.43950200     0.03100
C283        C  0.36210416  0.05801794  0.49523805     0.37700
C284        C  0.45982814  0.12772218  0.40061726     0.37700
C285        C  0.48695369  0.07211390  0.42746753     0.36200
C286        C  0.35075944  0.12345420  0.47385344     0.36200
N287        N  0.51379822  0.06127681  0.41770196    -0.38700
N288        N  0.32442753  0.13392691  0.48452840    -0.38700
N289        N  0.47544202  0.13837293  0.38003339    -0.38100
N290        N  0.33727206  0.04158518  0.51275473    -0.38100
C291        C  0.24734245  0.34626758  0.56779012    -0.04800
C292        C  0.28669328  0.36669282  0.58498409    -0.01900
C293        C  0.33412009  0.39215119  0.57519821     0.03100
C294        C  0.34186289  0.39809210  0.54827006    -0.04800
C295        C  0.30349000  0.37605680  0.53104577    -0.01900
C296        C  0.25631115  0.35025221  0.54066452     0.03100
C297        C  0.27833107  0.36168280  0.61269205     0.37700
C298        C  0.31254303  0.38066598  0.50331851     0.37700
C299        C  0.21644405  0.33020958  0.52245121     0.36200
C300        C  0.37495470  0.41230341  0.59276904     0.36200
N301        N  0.18481299  0.31419588  0.50786704    -0.38700
N302        N  0.40763761  0.42797120  0.60680983    -0.38700
N303        N  0.32447466  0.87509261  0.48128649    -0.38100
N304        N  0.27157516  0.35782516  0.63480509    -0.38100
C305        C  0.09122266  0.21635765  0.56874746    -0.04800
C306        C  0.11572274  0.19075267  0.57171843    -0.01900
C307        C  0.09726689  0.15217992  0.55978272     0.03100
C308        C  0.05402971  0.13809815  0.54482441    -0.04800
C309        C  0.02756001  0.16180104  0.54359523    -0.01900
C310        C  0.04392018  0.19885866  0.55706992     0.03100
C311        C  0.15995632  0.20328350  0.58724556     0.37700
C312        C  0.98349201  0.14877244  0.52796478     0.37700
C313        C  0.00837043  0.21499832  0.56165366     0.36200
C314        C  0.12207458  0.12634764  0.56366445     0.36200
N315        N  0.97865213  0.22654690  0.56512717    -0.38700
N316        N  0.14178137  0.10574935  0.56690551    -0.38700
N317        N  0.44775174  0.13915520  0.51593909    -0.38100
N318        N  0.19595329  0.21296444  0.59896967    -0.38100
C319        C  0.10813212  0.36365579  0.56634309    -0.04800
C320        C  0.05840821  0.35742465  0.56860545    -0.01900
C321        C  0.04223446  0.38426879  0.55668592     0.03100
C322        C  0.07549089  0.41757231  0.54169983    -0.04800
C323        C  0.12630607  0.42659278  0.54223291    -0.01900
C324        C  0.14260846  0.40020640  0.55477604     0.03100
C325        C  0.02401738  0.32421095  0.58438979     0.37700
C326        C  0.16224643  0.46325855  0.52981371     0.37700
C327        C  0.19504384  0.41162061  0.55556066     0.36200
C328        C  0.99032996  0.37511528  0.55848318     0.36200
N329        N  0.23746194  0.42329457  0.55613263    -0.38700
N330        N  0.94869273  0.36681886  0.56037323    -0.38700
N331        N  0.19250156  0.99796883  0.52423799    -0.38100
N332        N  0.99682732  0.29848428  0.59751512    -0.38100
C333        C  0.01327770  0.00899820  0.96972498    -0.04800
C334        C  0.05389918  0.50064587  0.98499317    -0.01900
C335        C  0.06390958  0.51356351  0.01089455     0.03100
C336        C  0.03110109  0.03229747  0.02245845    -0.04800
C337        C  0.00419294  0.04718048  0.00670005    -0.01900
C338        C  0.99578467  0.03589389  0.98031934     0.03100
C339        C  0.07778320  0.47742159  0.97399936     0.37700
C340        C  0.98407293  0.07331168  0.01766934     0.37700
C341        C  0.97073329  0.05326394  0.96413440     0.36200
C342        C  0.60049675  0.50604530  0.02523021     0.36200
N343        N  0.95179580  0.06872824  0.95177148    -0.38700
N344        N  0.63042198  0.50054266  0.03624266    -0.38700
N345        N  0.96823344  0.09433760  0.02636223    -0.37800
N346        N  0.59875431  0.45978311  0.96593450    -0.38100
C347        C  0.14403331  0.31639039  0.64415243    -0.04800
C348        C  0.13085288  0.34702540  0.65274074    -0.01900
C349        C  0.13426361  0.35780385  0.67915801     0.03100
C350        C  0.15287103  0.33956927  0.69761151    -0.04800
C351        C  0.16290829  0.30702854  0.68949043    -0.01900
C352        C  0.15858108  0.29557276  0.66303902     0.03100
C353        C  0.11195146  0.36734813  0.63496594     0.37700
C354        C  0.17775740  0.28487888  0.70808933     0.37700
C355        C  0.17040125  0.26270070  0.65555519     0.36200
C356        C  0.11535731  0.38622545  0.68730465     0.36200
N357        N  0.17953388  0.23597328  0.65045349    -0.38700
N358        N  0.09895051  0.40851890  0.69258503    -0.38700
N359        N  0.18868748  0.26596866  0.72244941    -0.38100
N360        N  0.09679151  0.38540654  0.62234809    -0.38100
C361        C  0.40451039  0.31098668  0.89282815    -0.04800
C362        C  0.37869205  0.33468274  0.88832647    -0.01900
C363        C  0.39900502  0.37602283  0.89591387     0.03100
C364        C  0.44880928  0.39638011  0.90491529    -0.04800
C365        C  0.47179411  0.37096389  0.91189743    -0.01900
C366        C  0.44803029  0.32858400  0.90784435     0.03100
C367        C  0.32959175  0.31616776  0.87711852     0.37700
C368        C  0.02161614  0.38766254  0.92204662     0.37700
C369        C  0.46877364  0.30350525  0.91975921     0.36200
C370        C  0.36565322  0.39492950  0.89616118     0.36200
N371        N  0.98537759  0.28382898  0.92960907    -0.38700
N372        N  0.33705238  0.40814853  0.89574584    -0.38700
N373        N  0.06189478  0.39909667  0.92901131    -0.38100
N374        N  0.29049111  0.30163630  0.86820702    -0.38100
C375        C  0.09768420  0.02108656  0.89096784    -0.04800
C376        C  0.10301568  0.01455263  0.86427109    -0.01900
C377        C  0.14584409  0.04037693  0.85052723     0.03100
C378        C  0.18373934  0.07387113  0.86276453    -0.04800
C379        C  0.18018129  0.07914668  0.88963428    -0.01900
C380        C  0.13717555  0.05328141  0.90362369     0.03100
C381        C  0.06295843  0.98339191  0.84997674     0.37700
C382        C  0.22020540  0.11187822  0.90281462     0.37700
C383        C  0.13369001  0.06090802  0.93089389     0.36200
C384        C  0.15069193  0.03189086  0.82353909     0.36200
N385        N  0.13197032  0.06832142  0.95253631    -0.38700
N386        N  0.15333234  0.02410989  0.80208730    -0.38700
N387        N  0.25217861  0.13777318  0.91346882    -0.38100
N388        N  0.03121881  0.95853454  0.83852724    -0.38100
C389        C  0.45467464  0.03434269  0.89183756    -0.04800
C390        C  0.48426441  0.06813639  0.87637935    -0.01900
C391        C  0.46509485  0.09451907  0.86699805     0.03100
C392        C  0.41642943  0.08806187  0.87350817    -0.04800
C393        C  0.38716546  0.05471148  0.88947682    -0.01900
C394        C  0.40641507  0.02836515  0.89881257     0.03100
C395        C  0.03512285  0.07712673  0.87041237     0.37700
C396        C  0.33808472  0.04850797  0.89758287     0.37700
C397        C  0.38177995  0.50134527  0.91453501     0.36200
C398        C  0.49566809  0.12806972  0.85021425     0.36200
N399        N  0.35814317  0.47723538  0.92962259    -0.38700
N400        N  0.52015806  0.15488569  0.83695963    -0.38700
N401        N  0.29900478  0.53921375  0.89289808    -0.38100
N402        N  0.07608476  0.08665500  0.86514620    -0.38100
C403        C  0.25335080  0.26183977  0.79703683    -0.04800
C404        C  0.20395611  0.25478468  0.80221884    -0.01900
C405        C  0.18411919  0.27953172  0.79093691     0.03100
C406        C  0.21383997  0.31292400  0.77515414    -0.04800
C407        C  0.26248936  0.31891031  0.76903924    -0.01900
C408        C  0.28235794  0.29396645  0.78011373     0.03100
C409        C  0.17298699  0.22218875  0.81954844     0.37700
C410        C  0.29057443  0.34828548  0.74932052     0.37700
C411        C  0.33197286  0.30043345  0.77293939     0.36200
C412        C  0.13232675  0.26860565  0.79517293     0.36200
N413        N  0.37154243  0.30576666  0.76711211    -0.38700
N414        N  0.09041107  0.25648260  0.79899174    -0.38700
N415        N  0.31255913  0.37094175  0.73315331    -0.38100
N416        N  0.14804556  0.19612780  0.83318145    -0.38100
C417        C  0.48821499  0.27478066  0.81012010    -0.04800
C418        C  0.03018703  0.30502448  0.82248961    -0.01900
C419        C  0.07201479  0.33058045  0.80794771     0.03100
C420        C  0.07295732  0.32645437  0.78068336    -0.04800
C421        C  0.03070034  0.29706962  0.76827685    -0.01900
C422        C  0.48833611  0.27161824  0.78282556     0.03100
C423        C  0.03094232  0.31018553  0.85033477     0.37700
C424        C  0.03092645  0.29231296  0.74043298     0.37700
C425        C  0.44550512  0.24160487  0.76975880     0.36200
C426        C  0.11540460  0.35906542  0.82160475     0.36200
N427        N  0.41130063  0.21785070  0.75921837    -0.38700
N428        N  0.14978800  0.38184460  0.83253323    -0.38700
N429        N  0.03115344  0.28816410  0.71824015    -0.38100
N430        N  0.03301754  0.31489952  0.87249196    -0.38100
C431        C  0.27027433  0.04472112  0.77686289    -0.04800
C432        C  0.22537042  0.52370203  0.75974484    -0.01900
C433        C  0.20245806  0.48165393  0.75480068     0.03100
C434        C  0.22657986  0.45678996  0.76079836    -0.04800
C435        C  0.27684778  0.47737313  0.76867965    -0.01900
C436        C  0.29637060  0.51794529  0.77760625     0.03100
C437        C  0.20866812  0.05479698  0.74891007     0.37700
C438        C  0.31117308  0.45981574  0.76489979     0.37700
C439        C  0.34516750  0.53575119  0.78911821     0.36200
C440        C  0.15259921  0.46465790  0.74473953     0.36200
N441        N  0.38020797  0.05040066  0.80537993    -0.38700
N442        N  0.11208747  0.45247819  0.73799071    -0.38700
N443        N  0.34019458  0.44736695  0.76199464    -0.38100
N444        N  0.19246160  0.07522490  0.73977702    -0.38100
O445        O  0.43060181  0.65718456  0.85727908    -0.80300
O446        O  0.31812820  0.74724923  0.80924626    -0.65000
O447        O  0.35346288  0.68035819  0.85300338    -1.11600
C448        C  0.28422241  0.58153466  0.78771149     1.06600
O449        O  0.24535490  0.69741121  0.79934678    -0.78200
O450        O  0.22093203  0.62683829  0.82426335    -0.65800
Ni451      Ni  0.41663649  0.70102668  0.86886313     1.34900
C452        C  0.22985512  0.60635409  0.84154028     0.85300
O453        O  0.35768983  0.75887222  0.85637949    -0.78800
O454        O  0.40843479  0.74637790  0.88242510    -0.89000
C455        C  0.27455849  0.73488662  0.80068074     0.84900
O456        O  0.45535649  0.73373201  0.84080480    -0.67200
O457        O  0.25745274  0.59995544  0.78400717    -0.86500
C458        C  0.44575196  0.74954718  0.82098974     0.85700
C459        C  0.38711054  0.76817852  0.87562819     1.07300
H460        H  0.34293428  0.68026854  0.79265072     0.39100
O461        O  0.32003619  0.67167140  0.80715239    -1.09200
O462        O  0.27247053  0.60748606  0.84458374    -0.65800
Ni463      Ni  0.33712532  0.63713054  0.82864312     1.26300
O464        O  0.40199361  0.74280528  0.81476826    -0.66100
O465        O  0.32057106  0.59511177  0.80323429    -0.78400
C466        C  0.40223459  0.61949893  0.85891161     0.85100
O467        O  0.35812622  0.60586516  0.85092488    -0.65500
Ni468      Ni  0.25526307  0.64988638  0.79297408     1.27400
Ni469      Ni  0.33806358  0.71547791  0.83138056     1.26100
H470        H  0.32938595  0.67137559  0.86689394     0.39600
C471        C  0.20187124  0.91485325  0.75641768     0.87000
C472        C  0.19689246  0.90245447  0.72778814    -0.53200
C473        C  0.17059096  0.86168950  0.72334296     0.10000
C474        C  0.15186886  0.83643562  0.74839433     0.20900
C475        C  0.14858285  0.89629031  0.76694288    -0.53900
C476        C  0.12230980  0.85551819  0.76309383     0.10100
C477        C  0.22338410  0.88823427  0.76968734    -0.53400
C478        C  0.19844880  0.84763841  0.76489180     0.10600
H479        H  0.21261704  0.92437439  0.71222197     0.15200
H480        H  0.13078679  0.80336491  0.74498624     0.00900
H481        H  0.13383985  0.91352207  0.77826949     0.15500
H482        H  0.25396452  0.89917690  0.78301776     0.15300
C483        C  0.46842098  0.93762825  0.91075905     0.87000
C484        C  0.44828153  0.96433932  0.89643292    -0.53200
C485        C  0.48061926  0.51139313  0.90218961     0.10000
C486        C  0.02755786  0.52161823  0.91831292     0.20900
C487        C  0.02269198  0.95560204  0.90132918    -0.53900
C488        C  0.05664799  0.50306325  0.90265600     0.10100
C489        C  0.47243900  0.95080646  0.93923036    -0.53400
C490        C  0.00955634  0.49518252  0.94287258     0.10600
H491        H  0.41833910  0.95349028  0.88272985     0.15200
H492        H  0.04893492  0.55438770  0.92255877     0.00900
H493        H  0.03807646  0.93737319  0.89163660     0.15500
H494        H  0.45723385  0.92938738  0.95509736     0.15300
O495        O  0.11673398  0.52397221  0.48025836    -0.80300
O496        O  0.42687296  0.92232725  0.53162976    -0.65000
O497        O  0.02016205  0.98606524  0.48099401    -1.11600
C498        C  0.03014586  0.59747720  0.53396125     1.06600
O499        O  0.39002275  0.96321119  0.53125952    -0.78200
O500        O  0.42308936  0.53296764  0.50320405    -0.65800
Ni501      Ni  0.07022357  0.97089179  0.46968716     1.34900
C502        C  0.44742387  0.54834916  0.48267417     0.85300
O503        O  0.45889416  0.90278118  0.48759383    -0.78800
O504        O  0.02151532  0.91822969  0.45896234    -0.89000
C505        C  0.39047391  0.92965265  0.53680930     0.84900
O506        O  0.08073267  0.94719416  0.50062433    -0.67200
O507        O  0.98664601  0.57384485  0.54174115    -0.86500
C508        C  0.05898524  0.93809509  0.52241007     0.85700
C509        C  0.48035241  0.89345731  0.46899020     1.07300
H510        H  0.00875123  0.50498397  0.53966275     0.39100
O511        O  0.98999388  0.50445351  0.52443495    -1.09200
O512        O  0.99037326  0.55022021  0.47870712    -0.65800
Ni513      Ni  0.03620679  0.53725298  0.49885857     1.26300
O514        O  0.02062674  0.94298274  0.52738726    -0.66100
O515        O  0.05474627  0.58699736  0.51778376    -0.78400
C516        C  0.12058045  0.55651549  0.46969613     0.85100
O517        O  0.08543867  0.56648993  0.47306642    -0.65500
Ni518      Ni  0.43941988  0.51864238  0.53601681     1.27400
Ni519      Ni  0.47446401  0.95278891  0.50626257     1.26100
H520        H  0.00172760  0.98675366  0.46588651     0.39600
C521        C  0.39104946  0.72591322  0.42766817     0.87000
C522        C  0.33640832  0.70073038  0.43498152    -0.53200
C523        C  0.31392355  0.66257542  0.42435859     0.10000
C524        C  0.35036034  0.65302396  0.40749004     0.20900
C525        C  0.41630916  0.69852991  0.43508594    -0.53900
C526        C  0.39396702  0.66009240  0.42556884     0.10100
C527        C  0.39260699  0.72511432  0.39785965    -0.53400
C528        C  0.37127456  0.68731657  0.38708537     0.10600
H529        H  0.31796956  0.71203398  0.44869024     0.15200
H530        H  0.33529890  0.62310201  0.39808276     0.00900
H531        H  0.44886756  0.70761967  0.44694020     0.15500
H532        H  0.40981347  0.75234674  0.38614251     0.15300
C533        C  0.11987947  0.76344781  0.57718099     0.87000
C534        C  0.11903703  0.76859943  0.60675688    -0.53200
C535        C  0.14417749  0.80780082  0.61526069     0.10000
C536        C  0.16811488  0.83873321  0.59320507     0.20900
C537        C  0.10151856  0.79367824  0.56586779    -0.53900
C538        C  0.12575508  0.83270054  0.57468341     0.10100
C539        C  0.17470886  0.78390704  0.56959589    -0.53400
C540        C  0.19998926  0.82284987  0.57781877     0.10600
H541        H  0.09990379  0.74325816  0.61982861     0.15200
H542        H  0.18866388  0.87039940  0.60005240     0.00900
H543        H  0.07439232  0.78651360  0.55069789     0.15500
H544        H  0.19165532  0.76986072  0.55691232     0.15300
O545        O  0.28767312  0.82703523  0.20127491    -0.80300
O546        O  0.18776879  0.91865161  0.13582195    -0.65000
O547        O  0.22219217  0.86035010  0.18745848    -1.11600
C548        C  0.13824181  0.74919612  0.12961157     1.06600
O549        O  0.11275253  0.87010114  0.13664073    -0.78200
O550        O  0.08050999  0.79624302  0.15829623    -0.65800
Ni551      Ni  0.28903029  0.87995647  0.19812937     1.34900
C552        C  0.09107481  0.78831194  0.18071552     0.85300
O553        O  0.23188120  0.93950578  0.18228998    -0.78800
O554        O  0.29860583  0.93568639  0.19823465    -0.89000
C555        C  0.14266869  0.90562576  0.12964438     0.84900
O556        O  0.31230762  0.88321735  0.16349261    -0.67200
O557        O  0.12035970  0.77106349  0.11868357    -0.86500
C558        C  0.30910122  0.90612294  0.14597665     0.85700
C559        C  0.27282180  0.95508256  0.19435284     1.07300
H560        H  0.20622366  0.84503528  0.12834349     0.39100
O561        O  0.18370475  0.84174930  0.14252948    -1.09200
O562        O  0.13457231  0.79514584  0.18711572    -0.65800
Ni563      Ni  0.19543324  0.81041643  0.16850718     1.26300
O564        O  0.27095345  0.91263146  0.14397847    -0.66100
O565        O  0.16732273  0.76077089  0.14894502    -0.78400
C566        C  0.25358433  0.79109059  0.20266955     0.85100
O567        O  0.21044281  0.78131037  0.19453544    -0.65500
Ni568      Ni  0.11904997  0.82144402  0.12819890     1.27400
Ni569      Ni  0.20744468  0.89123427  0.16176868     1.26100
H570        H  0.20238686  0.85812759  0.20268788     0.39600
C571        C  0.06193549  0.58208280  0.09074169     0.87000
C572        C  0.06350121  0.58114971  0.06099469    -0.53200
C573        C  0.04497153  0.54306427  0.05084734     0.10000
C574        C  0.51899980  0.00677262  0.07129429     0.20900
C575        C  0.50665581  0.55601311  0.09643999    -0.53900
C576        C  0.48319423  0.01561422  0.08869868     0.10100
C577        C  0.08763449  0.55610301  0.09988028    -0.53400
C578        C  0.06411423  0.01539649  0.08862078     0.10600
H579        H  0.07636121  0.60805731  0.04886241     0.15200
H580        H  0.50208124  0.97657755  0.06208578     0.00900
H581        H  0.48309241  0.56606489  0.10718047     0.15500
H582        H  0.11626519  0.56717214  0.11444639     0.15300
C583        C  0.34435677  0.61858311  0.23573277     0.87000
C584        C  0.31198929  0.63954694  0.22786544    -0.53200
C585        C  0.32737613  0.67803415  0.23696913     0.10000
C586        C  0.37482021  0.69284471  0.25332613     0.20900
C587        C  0.39557141  0.64904152  0.22548899    -0.53900
C588        C  0.41225137  0.68750866  0.23511728     0.10100
C589        C  0.34809698  0.62196993  0.26525819    -0.53400
C590        C  0.36330195  0.66034223  0.27474079     0.10600
H591        H  0.28121452  0.62627625  0.21463182     0.15200
H592        H  0.38760465  0.72421165  0.26074264     0.00900
H593        H  0.41600792  0.64221482  0.21044211     0.15500
H594        H  0.33870966  0.59573492  0.27774181     0.15300
C595        C  0.35353844  0.92922941  0.12920717    -0.04800
C596        C  0.34918834  0.94309763  0.10407283    -0.01900
C597        C  0.39183479  0.96957669  0.09016164     0.03100
C598        C  0.43876086  0.98385724  0.10158052    -0.04800
C599        C  0.44334656  0.97006000  0.12649703    -0.01900
C600        C  0.40156128  0.94169995  0.13971881     0.03100
C601        C  0.30105348  0.93049469  0.09239448     0.37700
C602        C  0.49125650  0.98526891  0.13895662     0.37700
C603        C  0.40879944  0.92737740  0.16489067     0.36200
C604        C  0.39030323  0.48429621  0.06463765     0.36200
N605        N  0.41474224  0.91640518  0.18502951    -0.38700
N606        N  0.38464501  0.49466243  0.04426831    -0.38700
N607        N  0.52892809  0.99686274  0.14932709    -0.38100
N608        N  0.26716574  0.42272918  0.08474885    -0.38100
C609        C  0.12151838  0.70686565  0.12047323    -0.04800
C610        C  0.07953842  0.67579522  0.13192094    -0.01900
C611        C  0.06497482  0.63504052  0.12507630     0.03100
C612        C  0.08560698  0.62517192  0.10285213    -0.04800
C613        C  0.13062560  0.65613010  0.09289220    -0.01900
C614        C  0.14825798  0.69670139  0.10168136     0.03100
C615        C  0.04938320  0.68541600  0.15009089     0.37700
C616        C  0.16053615  0.64638214  0.07459295     0.37700
C617        C  0.19342468  0.72816731  0.09105686     0.36200
C618        C  0.53423839  0.60406084  0.14333714     0.36200
N619        N  0.22946890  0.75325314  0.08256110    -0.38700
N620        N  0.50966889  0.57997630  0.15821052    -0.38700
N621        N  0.18463907  0.63892660  0.05995581    -0.38100
N622        N  0.02324557  0.69177333  0.16390718    -0.38100
C623        C  0.08425978  0.98509624  0.09522710    -0.04800
C624        C  0.05296249  0.94346851  0.10002672    -0.01900
C625        C  0.07234767  0.91740310  0.10991869     0.03100
C626        C  0.12341163  0.93236114  0.11594599    -0.04800
C627        C  0.15530093  0.97267691  0.10826414    -0.01900
C628        C  0.13594470  0.99821011  0.09742485     0.03100
C629        C  0.00048937  0.92581432  0.09468973     0.37700
C630        C  0.20847790  0.98836683  0.11075875     0.37700
C631        C  0.17741939  0.54288146  0.09498751     0.36200
C632        C  0.03868271  0.87468225  0.11317540     0.36200
N633        N  0.20617482  0.57499406  0.08896343    -0.38700
N634        N  0.01152288  0.84075175  0.11550556    -0.38700
N635        N  0.25014431  0.50880194  0.13205328    -0.38100
N636        N  0.45872987  0.90951792  0.09019622    -0.38100
C637        C  0.26650961  0.75894642  0.21178077    -0.04800
C638        C  0.27070087  0.75300497  0.23840064    -0.01900
C639        C  0.28979769  0.72603451  0.24672497     0.03100
C640        C  0.30419137  0.70455017  0.22837608    -0.04800
C641        C  0.29813800  0.70965564  0.20156571    -0.01900
C642        C  0.27906349  0.73661383  0.19341203     0.03100
C643        C  0.25521189  0.77459325  0.25720590     0.37700
C644        C  0.31580458  0.69041724  0.18212432     0.37700
C645        C  0.27456451  0.74300134  0.16597385     0.36200
C646        C  0.29495198  0.72093618  0.27418868     0.36200
N647        N  0.27100955  0.74836638  0.14416646    -0.38700
N648        N  0.29914766  0.71767816  0.29619957    -0.38700
N649        N  0.32996105  0.67534059  0.16650278    -0.38100
N650        N  0.24257105  0.79148725  0.27231199    -0.38100
C651        C  0.28861113  0.49290582  0.20743518    -0.04800
C652        C  0.25540282  0.50723909  0.21703056    -0.01900
C653        C  0.27307640  0.54708693  0.22688748     0.03100
C654        C  0.32482380  0.57383524  0.22668268    -0.04800
C655        C  0.35766042  0.55664237  0.22000577    -0.01900
C656        C  0.33972606  0.51779793  0.20891742     0.03100
C657        C  0.20292583  0.48021238  0.21777550     0.37700
C658        C  0.40958096  0.57600578  0.22655558     0.37700
C659        C  0.37911324  0.00873223  0.19744022     0.36200
C660        C  0.23706660  0.55890679  0.23816359     0.36200
N661        N  0.40957433  0.00068138  0.18930220    -0.38700
N662        N  0.20723696  0.56763610  0.24649476    -0.38700
N663        N  0.45125987  0.58976603  0.23120886    -0.38100
N664        N  0.16118436  0.45854736  0.21846558    -0.38100
C665        C  0.05003296  0.76867097  0.19984018    -0.04800
C666        C  0.04741271  0.73619535  0.21571063    -0.01900
C667        C  0.50386270  0.71296912  0.22990066     0.03100
C668        C  0.46157816  0.72003564  0.22705398    -0.04800
C669        C  0.46647153  0.75553218  0.21397145    -0.01900
C670        C  0.01082302  0.78005826  0.20082631     0.03100
C671        C  0.08728747  0.72399302  0.21597247     0.37700
C672        C  0.42659690  0.76747249  0.21356041     0.37700
C673        C  0.01643780  0.81751195  0.18853456     0.36200
C674        C  0.50304252  0.68266053  0.24823080     0.36200
N675        N  0.02117655  0.84759498  0.17898698    -0.38700
N676        N  0.50292675  0.65957801  0.26356424    -0.38700
N677        N  0.39699372  0.77959905  0.21286229    -0.38100
N678        N  0.11836287  0.71342693  0.21616574    -0.38100
C679        C  0.36947619  0.68036716  0.35821860    -0.04800
C680        C  0.32498512  0.65364758  0.34617677    -0.01900
C681        C  0.32330025  0.64707362  0.31916490     0.03100
C682        C  0.36536896  0.66844571  0.30335899    -0.04800
C683        C  0.40931835  0.69629004  0.31517800    -0.01900
C684        C  0.41191357  0.70109153  0.34241479     0.03100
C685        C  0.27976225  0.63368279  0.36111880     0.37700
C686        C  0.45250127  0.72008217  0.29957893     0.37700
C687        C  0.45921689  0.72627758  0.35408447     0.36200
C688        C  0.27702675  0.61927540  0.30764231     0.36200
N689        N  0.49705040  0.74642002  0.36326192    -0.38700
N690        N  0.23973351  0.59682095  0.29899178    -0.38700
N691        N  0.48745776  0.74019210  0.28778037    -0.38100
N692        N  0.24291297  0.61715602  0.37231775    -0.38100
C693        C  0.16695179  0.58246609  0.45457846    -0.04800
C694        C  0.20056037  0.56638346  0.44731968    -0.01900
C695        C  0.24636427  0.59107499  0.43542528     0.03100
C696        C  0.26088879  0.63311861  0.43117232    -0.04800
C697        C  0.22444097  0.64755552  0.43502577    -0.01900
C698        C  0.17837707  0.62283224  0.44692162     0.03100
C699        C  0.18858744  0.52382712  0.45175110     0.37700
C700        C  0.23295251  0.68737522  0.42548059     0.37700
C701        C  0.14324737  0.63962693  0.45118117     0.36200
C702        C  0.27694141  0.57148897  0.42749257     0.36200
N703        N  0.11544462  0.65328601  0.45436336    -0.38700
N704        N  0.29897111  0.55377581  0.42113190    -0.38700
N705        N  0.23936138  0.71904295  0.41790653    -0.38100
N706        N  0.17951080  0.49009938  0.45535309    -0.38100
C707        C  0.45683943  0.85112022  0.45887113    -0.04800
C708        C  0.46536647  0.82036971  0.47104142    -0.01900
C709        C  0.43992262  0.77953499  0.46308738     0.03100
C710        C  0.41219051  0.76941643  0.43969484    -0.04800
C711        C  0.40153537  0.80044926  0.42847388    -0.01900
C712        C  0.42407583  0.84082398  0.43789572     0.03100
C713        C  0.00254100  0.83082189  0.49110626     0.37700
C714        C  0.36547859  0.79111948  0.40799965     0.37700
C715        C  0.41403147  0.87217175  0.42577351     0.36200
C716        C  0.43728160  0.74856471  0.48135868     0.36200
N717        N  0.40625025  0.89730368  0.41612403    -0.38700
N718        N  0.43529323  0.72439101  0.49635747    -0.38700
N719        N  0.33708793  0.78415245  0.39150497    -0.38100
N720        N  0.03278057  0.83804329  0.50659050    -0.38100
C721        C  0.42628243  0.56863887  0.46397756    -0.04800
C722        C  0.38574496  0.57633949  0.47190416    -0.01900
C723        C  0.37829791  0.60820297  0.46058005     0.03100
C724        C  0.40316806  0.62676048  0.43751569    -0.04800
C725        C  0.43754940  0.61439669  0.42676188    -0.01900
C726        C  0.45046154  0.58659889  0.44029594     0.03100
C727        C  0.35046981  0.55145691  0.49134852     0.37700
C728        C  0.46112567  0.63173637  0.40230446     0.37700
C729        C  0.48822657  0.57649942  0.42948023     0.36200
C730        C  0.34648697  0.62296234  0.47365600     0.36200
N731        N  0.51842400  0.56856605  0.42074141    -0.38700
N732        N  0.32161294  0.63465624  0.48462095    -0.38700
N733        N  0.47965783  0.64558201  0.38272073    -0.38100
N734        N  0.32164118  0.53134057  0.50646095    -0.38100
C735        C  0.25029833  0.84892348  0.56773157    -0.04800
C736        C  0.28927960  0.87143808  0.58471631    -0.01900
C737        C  0.33662841  0.89613154  0.57464193     0.03100
C738        C  0.34512639  0.89778553  0.54772388    -0.04800
C739        C  0.30682345  0.87449094  0.53083270    -0.01900
C740        C  0.25903235  0.85160572  0.54063568     0.03100
C741        C  0.28045447  0.87063919  0.61236639     0.37700
C742        C  0.31648463  0.87500641  0.50322712     0.37700
C743        C  0.21810246  0.83482520  0.52266953     0.36200
C744        C  0.37647567  0.92060508  0.59182873     0.36200
N745        N  0.18532438  0.82215507  0.50842295    -0.38700
N746        N  0.40839426  0.94015243  0.60545417    -0.38700
N747        N  0.32004790  0.38434712  0.48125468    -0.38100
N748        N  0.27371291  0.87070983  0.63443227    -0.38100
C749        C  0.09354774  0.71828944  0.56809709    -0.04800
C750        C  0.11773343  0.69230118  0.57012403    -0.01900
C751        C  0.09781534  0.65360282  0.55828611     0.03100
C752        C  0.05285594  0.63931367  0.54485674    -0.04800
C753        C  0.02678324  0.66327838  0.54438466    -0.01900
C754        C  0.04521273  0.70098120  0.55730924     0.03100
C755        C  0.16270691  0.70418831  0.58492509     0.37700
C756        C  0.98088122  0.64950419  0.53009826     0.37700
C757        C  0.01083871  0.71823716  0.56198303     0.36200
C758        C  0.12301060  0.62776381  0.56057188     0.36200
N759        N  0.98172920  0.73047685  0.56528763    -0.38700
N760        N  0.14282963  0.60697902  0.56233771    -0.38700
N761        N  0.44473143  0.63943635  0.51853601    -0.38100
N762        N  0.19909092  0.71313014  0.59617852    -0.38100
C763        C  0.11128373  0.86529226  0.56633296    -0.04800
C764        C  0.06134944  0.85830621  0.56866315    -0.01900
C765        C  0.04456615  0.88454250  0.55665396     0.03100
C766        C  0.07774230  0.91821105  0.54200310    -0.04800
C767        C  0.12881673  0.92885474  0.54343747    -0.01900
C768        C  0.14563725  0.90255877  0.55550888     0.03100
C769        C  0.02760584  0.82525232  0.58478469     0.37700
C770        C  0.16423785  0.96725462  0.53265837     0.37700
C771        C  0.19823454  0.91461585  0.55637562     0.36200
C772        C  0.99246912  0.87478616  0.55830041     0.36200
N773        N  0.24070772  0.92663076  0.55694661    -0.38700
N774        N  0.95071965  0.86608503  0.56013766    -0.38700
N775        N  0.19103491  0.49241891  0.51994091    -0.38100
N776        N  0.00103209  0.79980646  0.59828825    -0.38100
C777        C  0.02205560  0.51106947  0.96986029    -0.04800
C778        C  0.04428806  0.99777221  0.98476486    -0.01900
C779        C  0.05232221  0.00855171  0.01105000     0.03100
C780        C  0.03980632  0.53479439  0.02253604    -0.04800
C781        C  0.00885391  0.54614472  0.00744656    -0.01900
C782        C  0.00105848  0.53526796  0.98102700     0.03100
C783        C  0.07270489  0.97917739  0.97249855     0.37700
C784        C  0.98367553  0.56787628  0.01935678     0.37700
C785        C  0.97081651  0.54877902  0.96577726     0.36200
C786        C  0.58436394  0.99624531  0.02573117     0.36200
N787        N  0.94703383  0.56098143  0.95445060    -0.38700
N788        N  0.61026398  0.98577567  0.03664296    -0.38700
N789        N  0.96362498  0.58508376  0.02903486    -0.37800
N790        N  0.59801318  0.96661659  0.96281845    -0.38100
C791        C  0.14837225  0.81960504  0.64336667    -0.04800
C792        C  0.13418701  0.84965109  0.65199447    -0.01900
C793        C  0.13847810  0.86096468  0.67828799     0.03100
C794        C  0.15997995  0.84462804  0.69637127    -0.04800
C795        C  0.17338286  0.81397309  0.68798038    -0.01900
C796        C  0.16744887  0.80148750  0.66172597     0.03100
C797        C  0.11529219  0.87002796  0.63426662     0.37700
C798        C  0.19435550  0.79539731  0.70586789     0.37700
C799        C  0.18388333  0.77152015  0.65349369     0.36200
C800        C  0.11821708  0.88835218  0.68670664     0.36200
N801        N  0.19734140  0.74761108  0.64740946    -0.38700
N802        N  0.10066566  0.90970613  0.69235628    -0.38700
N803        N  0.21077843  0.77906921  0.71920700    -0.38100
N804        N  0.10082809  0.88863345  0.62170143    -0.38100
C805        C  0.40030620  0.80766845  0.88995217    -0.04800
C806        C  0.37348340  0.83089643  0.88640756    -0.01900
C807        C  0.39150868  0.87087025  0.89638625     0.03100
C808        C  0.43996637  0.89063759  0.90695210    -0.04800
C809        C  0.46214656  0.86503086  0.91433720    -0.01900
C810        C  0.44191311  0.82390623  0.90662753     0.03100
C811        C  0.32601130  0.81344212  0.87346852     0.37700
C812        C  0.00628131  0.88021633  0.93013084     0.37700
C813        C  0.46494296  0.79894506  0.91619554     0.36200
C814        C  0.35679436  0.88835740  0.89869625     0.36200
N815        N  0.98369239  0.77943627  0.92397689    -0.38700
N816        N  0.32770048  0.90098168  0.90030410    -0.38700
N817        N  0.04146924  0.89018418  0.94252025    -0.38100
N818        N  0.28819447  0.79977339  0.86314964    -0.38100
C819        C  0.10262891  0.52786366  0.88749221    -0.04800
C820        C  0.10036092  0.52816020  0.86014421    -0.01900
C821        C  0.14197996  0.55349204  0.84542951     0.03100
C822        C  0.18724217  0.57819382  0.85765965    -0.04800
C823        C  0.19046773  0.57601931  0.88486821    -0.01900
C824        C  0.14786939  0.55217419  0.89978171     0.03100
C825        C  0.05400281  0.50462119  0.84700021     0.37700
C826        C  0.23733085  0.59870291  0.89763136     0.37700
C827        C  0.15075036  0.55373327  0.92774638     0.36200
C828        C  0.13768046  0.55380897  0.81746695     0.36200
N829        N  0.15434455  0.55633400  0.95002256    -0.38700
N830        N  0.13349836  0.55404827  0.79523586    -0.38700
N831        N  0.27483578  0.61626604  0.90783687    -0.38100
N832        N  0.01707644  0.48588949  0.83655141    -0.38100
C833        C  0.46224396  0.54124216  0.89260050    -0.04800
C834        C  0.49292230  0.57651326  0.87852752    -0.01900
C835        C  0.47288483  0.60082563  0.86669336     0.03100
C836        C  0.42215795  0.59151444  0.86967046    -0.04800
C837        C  0.39191985  0.55726843  0.88476719    -0.01900
C838        C  0.41198277  0.53285869  0.89642653     0.03100
C839        C  0.04568833  0.58968571  0.87677993     0.37700
C840        C  0.34028882  0.54751239  0.88925246     0.37700
C841        C  0.37835278  0.99761477  0.91784746     0.36200
C842        C  0.50493530  0.63512035  0.85083879     0.36200
N843        N  0.35668342  0.97399770  0.93361538    -0.38700
N844        N  0.53048580  0.66250381  0.83828485    -0.38700
N845        N  0.29894937  0.04342215  0.90411283    -0.38100
N846        N  0.08822520  0.60308549  0.87515684    -0.38100
C847        C  0.25574525  0.76449107  0.79235145    -0.04800
C848        C  0.20645293  0.75712050  0.79806469    -0.01900
C849        C  0.18755066  0.78396362  0.78921018     0.03100
C850        C  0.21727853  0.81823164  0.77411799    -0.04800
C851        C  0.26589599  0.82456695  0.76747406    -0.01900
C852        C  0.28531989  0.79836849  0.77694026     0.03100
C853        C  0.17451011  0.72163850  0.81308078     0.37700
C854        C  0.29409391  0.85525897  0.74846843     0.37700
C855        C  0.33472280  0.80485601  0.76929216     0.36200
C856        C  0.13709689  0.77506951  0.79579873     0.36200
N857        N  0.37405277  0.80990204  0.76318581    -0.38700
N858        N  0.09634571  0.76483154  0.80180503    -0.38700
N859        N  0.31611349  0.87875099  0.73271174    -0.38100
N860        N  0.14869309  0.69314401  0.82468436    -0.38100
C861        C  0.48851396  0.77893076  0.80536680    -0.04800
C862        C  0.02967461  0.80879560  0.81824329    -0.01900
C863        C  0.07240293  0.83445632  0.80440320     0.03100
C864        C  0.07466053  0.83123279  0.77715639    -0.04800
C865        C  0.03247823  0.80335094  0.76394907    -0.01900
C866        C  0.48937244  0.77762374  0.77797398     0.03100
C867        C  0.02881010  0.81337398  0.84608390     0.37700
C868        C  0.03326423  0.80132305  0.73594533     0.37700
C869        C  0.44654286  0.74916853  0.76410392     0.36200
C870        C  0.11570216  0.86141233  0.81877846     0.36200
N871        N  0.41232096  0.72671006  0.75292560    -0.38700
N872        N  0.15018381  0.88272619  0.83026571    -0.38700
N873        N  0.03368248  0.79960655  0.71358951    -0.38100
N874        N  0.02944255  0.81765839  0.86825940    -0.38100
C875        C  0.26936467  0.54110758  0.77451376    -0.04800
C876        C  0.22903136  0.02888425  0.76002931    -0.01900
C877        C  0.20649753  0.98715591  0.75391814     0.03100
C878        C  0.22961441  0.96171821  0.76036800    -0.04800
C879        C  0.27872345  0.98164078  0.77000074    -0.01900
C880        C  0.29661871  0.02116599  0.78053296     0.03100
C881        C  0.20337281  0.54861255  0.74885721     0.37700
C882        C  0.31385918  0.96487732  0.76629204     0.37700
C883        C  0.34322566  0.03761610  0.79427480     0.36200
C884        C  0.15769997  0.97101428  0.74260509     0.36200
N885        N  0.38398051  0.54968882  0.79837630    -0.38700
N886        N  0.11788492  0.95974955  0.73493603    -0.38700
N887        N  0.34342644  0.95299193  0.76346883    -0.38100
N888        N  0.18584629  0.56818761  0.73985061    -0.38100
O889        O  0.92724937  0.15519336  0.86455720    -0.80300
O890        O  0.81788272  0.24683925  0.81423384    -0.65000
O891        O  0.85251455  0.18094974  0.85932990    -1.11600
C892        C  0.78303154  0.08368953  0.79162091     1.06600
O893        O  0.74350618  0.19640892  0.81083724    -0.78200
O894        O  0.71572142  0.11872461  0.82708862    -0.65800
Ni895      Ni  0.91572276  0.20085056  0.87501322     1.34900
C896        C  0.72589121  0.10316700  0.84685115     0.85300
O897        O  0.85939642  0.26028098  0.86115485    -0.78800
O898        O  0.91009367  0.24808199  0.88748111    -0.89000
C899        C  0.77294258  0.23368550  0.80768809     0.84900
O900        O  0.95465361  0.23136558  0.84636337    -0.67200
O901        O  0.76102588  0.10520851  0.78520040    -0.86500
C902        C  0.94540104  0.24695923  0.82633505     0.85700
C903        C  0.88946370  0.27017687  0.88009909     1.07300
H904        H  0.84110643  0.17859735  0.79949607     0.39100
O905        O  0.81798208  0.17101870  0.81383398    -1.09200
O906        O  0.76974534  0.10986857  0.85277417    -0.65800
Ni907      Ni  0.83322999  0.13639817  0.83561841     1.26300
O908        O  0.90189200  0.24127384  0.82021619    -0.66100
O909        O  0.81260004  0.09277100  0.81082100    -0.78400
C910        C  0.89767645  0.11763018  0.86513225     0.85100
O911        O  0.85326549  0.10507605  0.85793644    -0.65500
Ni912      Ni  0.75439972  0.15123662  0.79886104     1.27400
Ni913      Ni  0.83794940  0.21585655  0.83711554     1.26100
H914        H  0.82914136  0.17332287  0.87324083     0.39600
C915        C  0.69865792  0.40984512  0.75751389     0.87000
C916        C  0.69147328  0.39726805  0.72896114    -0.53200
C917        C  0.66455454  0.35659235  0.72465438     0.10000
C918        C  0.64784805  0.33146357  0.74996678     0.20900
C919        C  0.64623678  0.39143626  0.76921777    -0.53900
C920        C  0.61959641  0.35062955  0.76568783     0.10100
C921        C  0.72107433  0.38327338  0.76998454    -0.53400
C922        C  0.69559920  0.34257267  0.76548381     0.10600
H923        H  0.70661275  0.41912024  0.71330962     0.15200
H924        H  0.62633442  0.29841675  0.74684206     0.00900
H925        H  0.63240990  0.40890635  0.78093369     0.15500
H926        H  0.75222049  0.39429196  0.78295437     0.15300
C927        C  0.97706032  0.44345181  0.90907891     0.87000
C928        C  0.95567813  0.47093486  0.89676784    -0.53200
C929        C  0.97343870  0.00498370  0.90113431     0.10000
C930        C  0.51894692  0.01621391  0.91808598     0.20900
C931        C  0.53011788  0.46237521  0.89809066    -0.53900
C932        C  0.54898974  0.99668316  0.90437944     0.10100
C933        C  0.98309528  0.45474357  0.93792965    -0.53400
C934        C  0.49918878  0.99162490  0.94314849     0.10600
H935        H  0.92645017  0.46108518  0.88268909     0.15200
H936        H  0.53957156  0.04934858  0.92132995     0.00900
H937        H  0.54416121  0.44573924  0.88572440     0.15500
H938        H  0.96848341  0.43230213  0.95329453     0.15300
O939        O  0.62165158  0.02223070  0.47992752    -0.80300
O940        O  0.92444946  0.42358624  0.53302771    -0.65000
O941        O  0.51610026  0.48634695  0.48156850    -1.11600
C942        C  0.53243096  0.09634430  0.53360353     1.06600
O943        O  0.88738965  0.46433313  0.53215016    -0.78200
O944        O  0.92565647  0.02797812  0.50049384    -0.65800
Ni945      Ni  0.56642524  0.47208331  0.47016102     1.34900
C946        C  0.95238010  0.04772420  0.48168193     0.85300
O947        O  0.95591816  0.40334081  0.48872720    -0.78800
O948        O  0.51813330  0.41915249  0.45977720    -0.89000
C949        C  0.88768548  0.43065729  0.53788992     0.84900
O950        O  0.57798150  0.44837879  0.50086165    -0.67200
O951        O  0.48749194  0.07321616  0.53919685    -0.86500
C952        C  0.55660642  0.43867220  0.52272790     0.85700
C953        C  0.97754316  0.39411889  0.47011470     1.07300
H954        H  0.50994111  0.00321616  0.53965589     0.39100
O955        O  0.49243341  0.00321027  0.52404147    -1.09200
O956        O  0.49680453  0.05241374  0.47902990    -0.65800
Ni957      Ni  0.54032280  0.03640235  0.49931523     1.26300
O958        O  0.51848984  0.44383665  0.52814855    -0.66100
O959        O  0.55925548  0.08536409  0.51928077    -0.78400
C960        C  0.62550056  0.05558614  0.47064421     0.85100
O961        O  0.59061342  0.06570584  0.47438530    -0.65500
Ni962      Ni  0.94160938  0.01754678  0.53426136     1.27400
Ni963      Ni  0.97160521  0.45352224  0.50720728     1.26100
H964        H  0.49701749  0.48614051  0.46653552     0.39600
C965        C  0.89525735  0.22678661  0.42945314     0.87000
C966        C  0.84128489  0.20128498  0.43746856    -0.53200
C967        C  0.81820764  0.16344644  0.42653845     0.10000
C968        C  0.85389433  0.15420538  0.40895206     0.20900
C969        C  0.92105163  0.19939084  0.43616182    -0.53900
C970        C  0.89853828  0.16101617  0.42621702     0.10100
C971        C  0.89589223  0.22642918  0.39973636    -0.53400
C972        C  0.87388420  0.18881266  0.38907831     0.10600
H973        H  0.82412687  0.21219974  0.45211623     0.15200
H974        H  0.83841471  0.12481120  0.39888222     0.00900
H975        H  0.95372987  0.20828117  0.44788812     0.15500
H976        H  0.91347533  0.25361432  0.38795144     0.15300
C977        C  0.61646445  0.26148648  0.57756711     0.87000
C978        C  0.61579687  0.26649298  0.60707370    -0.53200
C979        C  0.64116334  0.30548454  0.61575628     0.10000
C980        C  0.66499295  0.33666156  0.59354822     0.20900
C981        C  0.59771353  0.29166715  0.56645613    -0.53900
C982        C  0.62217843  0.33080723  0.57515058     0.10100
C983        C  0.67103341  0.28179245  0.56969079    -0.53400
C984        C  0.69657698  0.32064714  0.57776343     0.10600
H985        H  0.59600899  0.24105899  0.61997583     0.15200
H986        H  0.68590778  0.36830642  0.60037773     0.00900
H987        H  0.57027142  0.28441507  0.55145057     0.15500
H988        H  0.68774561  0.26739294  0.55713129     0.15300
O989        O  0.79456056  0.32777286  0.19630997    -0.80300
O990        O  0.69263624  0.41657224  0.13416066    -0.65000
O991        O  0.72444356  0.35806045  0.18652964    -1.11600
C992        C  0.63599398  0.24610567  0.13162868     1.06600
O993        O  0.61550737  0.37121295  0.13702513    -0.78200
O994        O  0.58429516  0.30133834  0.16368502    -0.65800
Ni995      Ni  0.78874995  0.37758170  0.20090569     1.34900
C996        C  0.59621990  0.28897606  0.18424715     0.85300
O997        O  0.73855704  0.43878958  0.17978614    -0.78800
O998        O  0.78994694  0.42933165  0.20755097    -0.89000
C999        C  0.64732744  0.40580650  0.12932996     0.84900
O1000       O  0.82442281  0.39737003  0.16959915    -0.67200
O1001       O  0.61280075  0.26632047  0.12422576    -0.86500
C1002       C  0.81615593  0.40946949  0.14797306     0.85700
C1003       C  0.77069443  0.45090770  0.19770034     1.07300
H1004       H  0.70366634  0.34115821  0.12715442     0.39100
O1005       O  0.68375987  0.33888078  0.14236362    -1.09200
O1006       O  0.63862134  0.29020160  0.18734083    -0.65800
Ni1007     Ni  0.69887043  0.30827275  0.16760976     1.26300
O1008       O  0.77342436  0.40619856  0.14209976    -0.66100
O1009       O  0.67179264  0.25935981  0.14758399    -0.78400
C1010       C  0.76214666  0.29166316  0.19976127     0.85100
O1011       O  0.71776537  0.28015224  0.19301317    -0.65500
Ni1012     Ni  0.61700747  0.31959454  0.13121497     1.27400
Ni1013     Ni  0.71112903  0.38914977  0.16056152     1.26100
H1014       H  0.70263896  0.35541267  0.20093473     0.39600
C1015       C  0.55747113  0.08000155  0.09084906     0.87000
C1016       C  0.55669010  0.07899588  0.06100923    -0.53200
C1017       C  0.53679654  0.04079335  0.05078106     0.10000
C1018       C  0.02595804  0.50893315  0.07122901     0.20900
C1019       C  0.00234774  0.05423057  0.09774876    -0.53900
C1020       C  0.98816643  0.51726598  0.08752796     0.10100
C1021       C  0.58351980  0.05372268  0.09884430    -0.53400
C1022       C  0.57016764  0.51774341  0.08943967     0.10600
H1023       H  0.56964647  0.10596514  0.04894568     0.15200
H1024       H  0.01009093  0.47906003  0.06164740     0.00900
H1025       H  0.97973943  0.06447226  0.10918270     0.15500
H1026       H  0.61394001  0.06453272  0.11242166     0.15300
C1027       C  0.85022713  0.12054390  0.23884264     0.87000
C1028       C  0.82007746  0.14316160  0.23036676    -0.53200
C1029       C  0.83620477  0.18149603  0.23993244     0.10000
C1030       C  0.88192874  0.19439176  0.25739167     0.20900
C1031       C  0.90302580  0.15044357  0.23002786    -0.53900
C1032       C  0.92029792  0.18866338  0.24020268     0.10100
C1033       C  0.85106339  0.12270963  0.26847859    -0.53400
C1034       C  0.86743148  0.16104854  0.27819295     0.10600
H1035       H  0.79043453  0.13110926  0.21636017     0.15200
H1036       H  0.89489193  0.22526682  0.26561999     0.00900
H1037       H  0.92396879  0.14366946  0.21524181     0.15500
H1038       H  0.83922160  0.09602742  0.28078401     0.15300
C1039       C  0.85988668  0.43109608  0.12993883    -0.04800
C1040       C  0.85438206  0.44464736  0.10479630    -0.01900
C1041       C  0.89640488  0.47075123  0.09016883     0.03100
C1042       C  0.94411260  0.48519453  0.10076595    -0.04800
C1043       C  0.94981292  0.47166028  0.12553119    -0.01900
C1044       C  0.90892851  0.44268829  0.13904618     0.03100
C1045       C  0.80579278  0.43229061  0.09368836     0.37700
C1046       C  0.99767092  0.48896430  0.13811235     0.37700
C1047       C  0.91890469  0.42597219  0.16264945     0.36200
C1048       C  0.88739732  0.98296559  0.06434922     0.36200
N1049       N  0.92753400  0.41314016  0.18144722    -0.38700
N1050       N  0.88418112  0.99374438  0.04368701    -0.38700
N1051       N  0.03502661  0.50262251  0.14886702    -0.38100
N1052       N  0.76263290  0.92061127  0.08307912    -0.38100
C1053       C  0.61862404  0.20398942  0.12202263    -0.04800
C1054       C  0.57733063  0.17264076  0.13372925    -0.01900
C1055       C  0.56277002  0.13209511  0.12633918     0.03100
C1056       C  0.58187192  0.12288740  0.10325588    -0.04800
C1057       C  0.62621220  0.15414035  0.09293975    -0.01900
C1058       C  0.64464531  0.19430969  0.10256310     0.03100
C1059       C  0.54920263  0.18172682  0.15346568     0.37700
C1060       C  0.65472635  0.14509141  0.07343411     0.37700
C1061       C  0.69014729  0.22587433  0.09231118     0.36200
C1062       C  0.03393575  0.10087076  0.14496288     0.36200
N1063       N  0.72658885  0.25111011  0.08430797    -0.38700
N1064       N  0.01154402  0.07647705  0.16018322    -0.38700
N1065       N  0.67780253  0.13832136  0.05781457    -0.38100
N1066       N  0.52523757  0.18808781  0.16873654    -0.38100
C1067       C  0.59112775  0.48789681  0.09648368    -0.04800
C1068       C  0.56107737  0.44530720  0.09822719    -0.01900
C1069       C  0.58138617  0.41879537  0.10611134     0.03100
C1070       C  0.62992554  0.43413268  0.11621486    -0.04800
C1071       C  0.66048959  0.47632300  0.11371362    -0.01900
C1072       C  0.64223110  0.50212044  0.10213330     0.03100
C1073       C  0.50872331  0.42721665  0.09264565     0.37700
C1074       C  0.71082085  0.49404156  0.12322237     0.37700
C1075       C  0.67002536  0.03695540  0.08647709     0.36200
C1076       C  0.55213703  0.37536452  0.10274594     0.36200
N1077       N  0.69744559  0.06754731  0.07755283    -0.38700
N1078       N  0.52898873  0.34086698  0.09974471    -0.38700
N1079       N  0.75099035  0.00100005  0.11243380    -0.38100
N1080       N  0.96713249  0.41089956  0.08778154    -0.38100
C1081       C  0.77809566  0.26188598  0.21012797    -0.04800
C1082       C  0.77871297  0.25600613  0.23705967    -0.01900
C1083       C  0.79850648  0.23036426  0.24702304     0.03100
C1084       C  0.81660489  0.20974313  0.22995070    -0.04800
C1085       C  0.81668115  0.21647496  0.20290396    -0.01900
C1086       C  0.79720794  0.24226548  0.19310012     0.03100
C1087       C  0.75941859  0.27676113  0.25449631     0.37700
C1088       C  0.83982004  0.19911517  0.18516284     0.37700
C1089       C  0.79777166  0.24943605  0.16543396     0.36200
C1090       C  0.80129632  0.22637765  0.27479492     0.36200
N1091       N  0.79816871  0.25531654  0.14340866    -0.38700
N1092       N  0.80381663  0.22450522  0.29705205    -0.38700
N1093       N  0.85840464  0.18533430  0.17107458    -0.38100
N1094       N  0.74390437  0.29322882  0.26839264    -0.38100
C1095       C  0.79188273  0.99733972  0.20503200    -0.04800
C1096       C  0.75933820  0.01227698  0.21528248    -0.01900
C1097       C  0.77792904  0.05074778  0.22744312     0.03100
C1098       C  0.82976689  0.07621920  0.22862572    -0.04800
C1099       C  0.86159879  0.05861523  0.22117554    -0.01900
C1100       C  0.84330924  0.02139334  0.20784896     0.03100
C1101       C  0.70631086  0.98761989  0.21418192     0.37700
C1102       C  0.91247314  0.07530124  0.22962311     0.37700
C1103       C  0.87456324  0.50375191  0.19877779     0.36200
C1104       C  0.74284050  0.06225910  0.24013603     0.36200
N1105       N  0.90325070  0.49346169  0.19080383    -0.38700
N1106       N  0.71388355  0.07066705  0.24991020    -0.38700
N1107       N  0.95321458  0.08692683  0.23582851    -0.38100
N1108       N  0.66404789  0.96806388  0.21322762    -0.38100
C1109       C  0.55759082  0.27019526  0.20482797    -0.04800
C1110       C  0.55539922  0.23708029  0.21992349    -0.01900
C1111       C  0.01189210  0.21283595  0.23383801     0.03100
C1112       C  0.97024535  0.22116869  0.23277053    -0.04800
C1113       C  0.97637343  0.25869081  0.22214623    -0.01900
C1114       C  0.51962373  0.28281227  0.20798157     0.03100
C1115       C  0.59633431  0.22615242  0.22036865     0.37700
C1116       C  0.93932134  0.27345080  0.22574080     0.37700
C1117       C  0.52532794  0.32120371  0.19711307     0.36200
C1118       C  0.01134770  0.18100075  0.25073734     0.36200
N1119       N  0.52970945  0.35184885  0.18861838    -0.38700
N1120       N  0.01238310  0.15706442  0.26504138    -0.38700
N1121       N  0.91184826  0.28744044  0.22879242    -0.38100
N1122       N  0.62866118  0.21707878  0.22101580    -0.38100
C1123       C  0.87213940  0.18201381  0.36065226    -0.04800
C1124       C  0.82641633  0.16121332  0.34810663    -0.01900
C1125       C  0.82499844  0.15370854  0.32128972     0.03100
C1126       C  0.86909875  0.16921696  0.30650252    -0.04800
C1127       C  0.91451309  0.19234443  0.31888791    -0.01900
C1128       C  0.91623822  0.19700902  0.34597257     0.03100
C1129       C  0.78057354  0.14934991  0.36241558     0.37700
C1130       C  0.95972389  0.21258403  0.30410108     0.37700
C1131       C  0.96370598  0.21628520  0.35879002     0.36200
C1132       C  0.77766060  0.13221930  0.30874830     0.36200
N1133       N  0.00154292  0.23130196  0.36902316    -0.38700
N1134       N  0.73947749  0.11546913  0.29909862    -0.38700
N1135       N  0.99672958  0.23054020  0.29333353    -0.38100
N1136       N  0.74363399  0.14016158  0.37341624    -0.38100
C1137       C  0.67166354  0.08257950  0.45625694    -0.04800
C1138       C  0.70140655  0.06590405  0.44457963    -0.01900
C1139       C  0.74879189  0.09135437  0.43468775     0.03100
C1140       C  0.76525291  0.13419793  0.43345305    -0.04800
C1141       C  0.73081140  0.14951901  0.44068788    -0.01900
C1142       C  0.68661437  0.12475288  0.45387500     0.03100
C1143       C  0.68311780  0.02215774  0.44208695     0.37700
C1144       C  0.73891873  0.19030968  0.43358103     0.37700
C1145       C  0.65778180  0.14350340  0.46567099     0.36200
C1146       C  0.77947213  0.07190167  0.42668742     0.36200
N1147       N  0.63510683  0.15855640  0.47527425    -0.38700
N1148       N  0.80209667  0.05461841  0.42045379    -0.38700
N1149       N  0.74461505  0.22269646  0.42807907    -0.38100
N1150       N  0.66862841  0.98740838  0.43986867    -0.38100
C1151       C  0.95508203  0.35165015  0.46042542    -0.04800
C1152       C  0.96698067  0.32229079  0.47206030    -0.01900
C1153       C  0.94377345  0.28138972  0.46414602     0.03100
C1154       C  0.91499697  0.27021048  0.44122505    -0.04800
C1155       C  0.90084476  0.29971200  0.43051440    -0.01900
C1156       C  0.92103945  0.33999129  0.44002872     0.03100
C1157       C  0.50498159  0.33415616  0.49158141     0.37700
C1158       C  0.86388705  0.28889468  0.41036668     0.37700
C1159       C  0.90750077  0.36987682  0.42851839     0.36200
C1160       C  0.94446548  0.25113710  0.48203167     0.36200
N1161       N  0.89694712  0.39385832  0.41937710    -0.38700
N1162       N  0.94492681  0.22749968  0.49678281    -0.38700
N1163       N  0.83479808  0.28075384  0.39412722    -0.38100
N1164       N  0.53640940  0.34218183  0.50642303    -0.38100
C1165       C  0.93142071  0.06932727  0.46395980    -0.04800
C1166       C  0.89280123  0.07875662  0.47313174    -0.01900
C1167       C  0.88381664  0.10947788  0.46120557     0.03100
C1168       C  0.90744938  0.12720651  0.43773080    -0.04800
C1169       C  0.93970098  0.11314276  0.42613176    -0.01900
C1170       C  0.95279494  0.08524398  0.43946839     0.03100
C1171       C  0.86229215  0.05812314  0.49534560     0.37700
C1172       C  0.95941117  0.12729567  0.40050444     0.37700
C1173       C  0.98674577  0.07186735  0.42742172     0.36200
C1174       C  0.85084043  0.12346361  0.47387868     0.36200
N1175       N  0.01354620  0.06098791  0.41765105    -0.38700
N1176       N  0.82457080  0.13400017  0.48455666    -0.38700
N1177       N  0.97483853  0.13776489  0.37986861    -0.38100
N1178       N  0.83756017  0.04178820  0.51291425    -0.38100
C1179       C  0.74725197  0.34619791  0.56767731    -0.04800
C1180       C  0.78664361  0.36650711  0.58486852    -0.01900
C1181       C  0.83407937  0.39195398  0.57508442     0.03100
C1182       C  0.84181107  0.39796594  0.54815825    -0.04800
C1183       C  0.80339556  0.37600831  0.53093416    -0.01900
C1184       C  0.75618925  0.35025857  0.54055339     0.03100
C1185       C  0.77831496  0.36137928  0.61257430     0.37700
C1186       C  0.81244929  0.38060738  0.50320792     0.37700
C1187       C  0.71626391  0.33035145  0.52235150     0.36200
C1188       C  0.87492940  0.41201735  0.59265935     0.36200
N1189       N  0.68457504  0.31445658  0.50777968    -0.38700
N1190       N  0.90760990  0.42760852  0.60671221    -0.38700
N1191       N  0.82479285  0.87494941  0.48138750    -0.38100
N1192       N  0.77158872  0.35742040  0.63468582    -0.38100
C1193       C  0.59101734  0.21631971  0.56876935    -0.04800
C1194       C  0.61548398  0.19069465  0.57176837    -0.01900
C1195       C  0.59694598  0.15206265  0.55990653     0.03100
C1196       C  0.55369060  0.13795261  0.54496429    -0.04800
C1197       C  0.52719132  0.16163874  0.54375222    -0.01900
C1198       C  0.54365638  0.19878337  0.55714705     0.03100
C1199       C  0.65979051  0.20327584  0.58723894     0.37700
C1200       C  0.48292043  0.14845655  0.52826863     0.37700
C1201       C  0.50817194  0.21500061  0.56169781     0.36200
C1202       C  0.62163601  0.12616562  0.56388851     0.36200
N1203       N  0.47849456  0.22660359  0.56514005    -0.38700
N1204       N  0.64122494  0.10550275  0.56722651    -0.38700
N1205       N  0.94851765  0.13961425  0.51549589    -0.38100
N1206       N  0.69584692  0.21299050  0.59891411    -0.38100
C1207       C  0.60806134  0.36368589  0.56635995    -0.04800
C1208       C  0.55834161  0.35746425  0.56863845    -0.01900
C1209       C  0.54217243  0.38432854  0.55674311     0.03100
C1210       C  0.57543561  0.41765711  0.54178087    -0.04800
C1211       C  0.62625378  0.42670528  0.54233901    -0.01900
C1212       C  0.64254964  0.40027572  0.55483438     0.03100
C1213       C  0.52395935  0.32425296  0.58442623     0.37700
C1214       C  0.66220109  0.46348201  0.53003346     0.37700
C1215       C  0.69498582  0.41169005  0.55562300     0.36200
C1216       C  0.49027645  0.37519606  0.55855771     0.36200
N1217       N  0.73740059  0.42334202  0.55620914    -0.38700
N1218       N  0.44864757  0.36692109  0.56046690    -0.38700
N1219       N  0.69247341  0.99774289  0.52382160    -0.38100
N1220       N  0.49677710  0.29852625  0.59755410    -0.38100
C1221       C  0.51328977  0.00900902  0.96963656    -0.04800
C1222       C  0.55390402  0.50058059  0.98494741    -0.01900
C1223       C  0.56385475  0.51340324  0.01087026     0.03100
C1224       C  0.53111817  0.03226733  0.02238202    -0.04800
C1225       C  0.50415368  0.04711891  0.00664133    -0.01900
C1226       C  0.49575385  0.03586199  0.98025427     0.03100
C1227       C  0.57790029  0.47747715  0.97390192     0.37700
C1228       C  0.48394487  0.07316926  0.01763989     0.37700
C1229       C  0.47066332  0.05321711  0.96408599     0.36200
C1230       C  0.10064546  0.50632698  0.02525282     0.36200
N1231       N  0.45169623  0.06866896  0.95173405    -0.38700
N1232       N  0.13064575  0.50094108  0.03627567    -0.38700
N1233       N  0.46801776  0.09411867  0.02635863    -0.37800
N1234       N  0.09851423  0.45959745  0.96608163    -0.38100
C1235       C  0.64423963  0.31648233  0.64411669    -0.04800
C1236       C  0.63110339  0.34713794  0.65271391    -0.01900
C1237       C  0.63456020  0.35792913  0.67913201     0.03100
C1238       C  0.65316374  0.33968150  0.69758211    -0.04800
C1239       C  0.66322488  0.30716137  0.68944609    -0.01900
C1240       C  0.65885921  0.29569782  0.66299343     0.03100
C1241       C  0.61220407  0.36747312  0.63494577     0.37700
C1242       C  0.67815742  0.28505454  0.70803598     0.37700
C1243       C  0.67074751  0.26286990  0.65549556     0.36200
C1244       C  0.61570135  0.38638034  0.68727754     0.36200
N1245       N  0.67996307  0.23618789  0.65038975    -0.38700
N1246       N  0.59933045  0.40870372  0.69254125    -0.38700
N1247       N  0.68916504  0.26619623  0.72239870    -0.38100
N1248       N  0.59705495  0.38554097  0.62232927    -0.38100
C1249       C  0.90457137  0.31100604  0.89289388    -0.04800
C1250       C  0.87872021  0.33467874  0.88840778    -0.01900
C1251       C  0.89901924  0.37601692  0.89599264     0.03100
C1252       C  0.94884526  0.39640103  0.90495374    -0.04800
C1253       C  0.97188051  0.37101183  0.91191345    -0.01900
C1254       C  0.94811304  0.32862667  0.90789095     0.03100
C1255       C  0.82959634  0.31613882  0.87722932     0.37700
C1256       C  0.52148144  0.38758299  0.92209116     0.37700
C1257       C  0.96883313  0.30356239  0.91984614     0.36200
C1258       C  0.86563133  0.39488628  0.89628890     0.36200
N1259       N  0.48535063  0.28376104  0.92947739    -0.38700
N1260       N  0.83697967  0.40805367  0.89591394    -0.38700
N1261       N  0.56171890  0.39897244  0.92911204    -0.38100
N1262       N  0.79047575  0.30158755  0.86834225    -0.38100
C1263       C  0.59763109  0.02101948  0.89088789    -0.04800
C1264       C  0.60311645  0.01441678  0.86421645    -0.01900
C1265       C  0.64596907  0.04027424  0.85049521     0.03100
C1266       C  0.68376647  0.07383609  0.86273294    -0.04800
C1267       C  0.68008699  0.07915186  0.88958681    -0.01900
C1268       C  0.63704920  0.05327330  0.90355013     0.03100
C1269       C  0.56321634  0.98311597  0.84991828     0.37700
C1270       C  0.72002437  0.11193906  0.90277844     0.37700
C1271       C  0.63348391  0.06093286  0.93080679     0.36200
C1272       C  0.65094345  0.03174952  0.82353008     0.36200
N1273       N  0.63172183  0.06838389  0.95243834    -0.38700
N1274       N  0.65366824  0.02392625  0.80209620    -0.38700
N1275       N  0.75192619  0.13787778  0.91344397    -0.38100
N1276       N  0.53161931  0.95813631  0.83846296    -0.38100
C1277       C  0.95481624  0.03440446  0.89192286    -0.04800
C1278       C  0.98442957  0.06824987  0.87651125    -0.01900
C1279       C  0.96523784  0.09461237  0.86712311     0.03100
C1280       C  0.91651748  0.08807640  0.87357617    -0.04800
C1281       C  0.88722493  0.05466511  0.88949413    -0.01900
C1282       C  0.90651702  0.02836480  0.89885723     0.03100
C1283       C  0.53490063  0.07691633  0.87020769     0.37700
C1284       C  0.83805292  0.04833338  0.89751211     0.37700
C1285       C  0.88164142  0.50132603  0.91447969     0.36200
C1286       C  0.99585443  0.12822679  0.85039298     0.36200
N1287       N  0.85791707  0.47721657  0.92954588    -0.38700
N1288       N  0.02038281  0.15509436  0.83718397    -0.38700
N1289       N  0.79899810  0.53930094  0.89281320    -0.38100
N1290       N  0.57581533  0.08634890  0.86487862    -0.38100
C1291       C  0.75342718  0.26188124  0.79711107    -0.04800
C1292       C  0.70401672  0.25479575  0.80227889    -0.01900
C1293       C  0.68416728  0.27954824  0.79100976     0.03100
C1294       C  0.71388025  0.31296356  0.77524203    -0.04800
C1295       C  0.76257992  0.31902564  0.76917668    -0.01900
C1296       C  0.78245819  0.29407769  0.78023896     0.03100
C1297       C  0.67305433  0.22217076  0.81959106     0.37700
C1298       C  0.79074602  0.34851956  0.74953434     0.37700
C1299       C  0.83211752  0.30061984  0.77310331     0.36200
C1300       C  0.63238821  0.26864285  0.79527386     0.36200
N1301       N  0.87172285  0.30601694  0.76730463    -0.38700
N1302       N  0.59048847  0.25654760  0.79913233    -0.38700
N1303       N  0.81281157  0.37128140  0.73343288    -0.38100
N1304       N  0.64812705  0.19608788  0.83321402    -0.38100
C1305       C  0.98831343  0.27485099  0.81021487    -0.04800
C1306       C  0.53003049  0.30503775  0.82237886    -0.01900
C1307       C  0.57186047  0.33058241  0.80783574     0.03100
C1308       C  0.57289052  0.32634281  0.78058170    -0.04800
C1309       C  0.53071440  0.29681262  0.76819163    -0.01900
C1310       C  0.98836016  0.27181711  0.78291116     0.03100
C1311       C  0.53073073  0.31029677  0.85021317     0.37700
C1312       C  0.53108133  0.29179651  0.74037581     0.37700
C1313       C  0.94550581  0.24185951  0.76983085     0.36200
C1314       C  0.61518105  0.35916196  0.82149678     0.36200
N1315       N  0.91129470  0.21813973  0.75927667    -0.38700
N1316       N  0.64950740  0.38201918  0.83242696    -0.38700
N1317       N  0.53142787  0.28740792  0.71821085    -0.38100
N1318       N  0.53278470  0.31509929  0.87236162    -0.38100
C1319       C  0.77048898  0.04472935  0.77693426    -0.04800
C1320       C  0.72542337  0.52374669  0.75972567    -0.01900
C1321       C  0.70249531  0.48168448  0.75481286     0.03100
C1322       C  0.72656506  0.45679949  0.76087508    -0.04800
C1323       C  0.77681156  0.47737837  0.76881816    -0.01900
C1324       C  0.79636986  0.51799593  0.77766256     0.03100
C1325       C  0.70901556  0.05485211  0.74890233     0.37700
C1326       C  0.81110309  0.45973449  0.76526777     0.37700
C1327       C  0.84518295  0.53584447  0.78916186     0.36200
C1328       C  0.65266181  0.46470263  0.74471901     0.36200
N1329       N  0.88019593  0.05024572  0.80564574    -0.38700
N1330       N  0.61216791  0.45255153  0.73794478    -0.38700
N1331       N  0.84013702  0.44724515  0.76259176    -0.38100
N1332       N  0.69287577  0.07530268  0.73973522    -0.38100
O1333       O  0.93069596  0.65723528  0.85724079    -0.80300
O1334       O  0.81814678  0.74728577  0.80925645    -0.65000
O1335       O  0.85357894  0.68043581  0.85300220    -1.11600
C1336       C  0.78428033  0.58162187  0.78767097     1.06600
O1337       O  0.74535321  0.69740548  0.79946138    -0.78200
O1338       O  0.72091690  0.62671471  0.82419159    -0.65800
Ni1339     Ni  0.91679187  0.70110755  0.86882093     1.34900
C1340       C  0.72989515  0.60634160  0.84152276     0.85300
O1341       O  0.85777183  0.75892677  0.85639200    -0.78800
O1342       O  0.90866292  0.74649962  0.88236941    -0.89000
C1343       C  0.77455473  0.73488457  0.80071426     0.84900
O1344       O  0.95544278  0.73374658  0.84073090    -0.67200
O1345       O  0.75761278  0.60010890  0.78388754    -0.86500
C1346       C  0.94579124  0.74957355  0.82093823     0.85700
C1347       C  0.88726575  0.76826348  0.87561111     1.07300
H1348       H  0.84299408  0.68032262  0.79266637     0.39100
O1349       O  0.82008471  0.67172475  0.80716550    -1.09200
O1350       O  0.77255427  0.60759082  0.84462397    -0.65800
Ni1351     Ni  0.83717576  0.63718824  0.82865007     1.26300
O1352       O  0.90202961  0.74287092  0.81475615    -0.66100
O1353       O  0.82052521  0.59513236  0.80326258    -0.78400
C1354       C  0.90231179  0.61955748  0.85889564     0.85100
O1355       O  0.85819563  0.60593164  0.85092213    -0.65500
Ni1356     Ni  0.75533746  0.64996175  0.79295943     1.27400
Ni1357     Ni  0.83812877  0.71553614  0.83138946     1.26100
H1358       H  0.82954526  0.67146951  0.86690385     0.39600
C1359       C  0.70192578  0.91483493  0.75649510     0.87000
C1360       C  0.69691132  0.90249744  0.72785065    -0.53200
C1361       C  0.67056399  0.86174740  0.72337079     0.10000
C1362       C  0.65183300  0.83644433  0.74839844     0.20900
C1363       C  0.64863923  0.89628524  0.76703248    -0.53900
C1364       C  0.62232069  0.85552275  0.76314232     0.10100
C1365       C  0.72338919  0.88814850  0.76971649    -0.53400
C1366       C  0.69841691  0.84757317  0.76487639     0.10600
H1367       H  0.71266611  0.92444567  0.71230203     0.15200
H1368       H  0.63071407  0.80338630  0.74495898     0.00900
H1369       H  0.63394018  0.91350977  0.77839862     0.15500
H1370       H  0.75393669  0.89901262  0.78306488     0.15300
C1371       C  0.96854282  0.93767560  0.91081763     0.87000
C1372       C  0.94844156  0.96440622  0.89648231    -0.53200
C1373       C  0.98055706  0.51139742  0.90224584     0.10000
C1374       C  0.52759934  0.52160416  0.91826987     0.20900
C1375       C  0.52255235  0.95554405  0.90123535    -0.53900
C1376       C  0.55668334  0.50302338  0.90263031     0.10100
C1377       C  0.97248836  0.95081839  0.93929386    -0.53400
C1378       C  0.50956319  0.49517787  0.94283367     0.10600
H1379       H  0.91853925  0.95357692  0.88275522     0.15200
H1380       H  0.54898448  0.55437748  0.92250454     0.00900
H1381       H  0.53792611  0.93728440  0.89157361     0.15500
H1382       H  0.95724797  0.92938068  0.95514853     0.15300
O1383       O  0.61669459  0.52405190  0.48038031    -0.80300
O1384       O  0.92689957  0.92239941  0.53158938    -0.65000
O1385       O  0.52007165  0.98602827  0.48101550    -1.11600
C1386       C  0.53011365  0.59760849  0.53401791     1.06600
O1387       O  0.89018278  0.96339797  0.53145429    -0.78200
O1388       O  0.92314280  0.53292158  0.50316147    -0.65800
Ni1389     Ni  0.57008993  0.97085256  0.46965689     1.34900
C1390       C  0.94741216  0.54824783  0.48260490     0.85300
O1391       O  0.95888020  0.90286411  0.48754053    -0.78800
O1392       O  0.52133713  0.91822960  0.45888541    -0.89000
C1393       C  0.89058586  0.92978397  0.53687847     0.84900
O1394       O  0.58055555  0.94704950  0.50055775    -0.67200
O1395       O  0.48657910  0.57400434  0.54176396    -0.86500
C1396       C  0.55893794  0.93805525  0.52238109     0.85700
C1397       C  0.98043774  0.89350460  0.46900065     1.07300
H1398       H  0.50870210  0.50509154  0.53976083     0.39100
O1399       O  0.48996582  0.50456707  0.52452549    -1.09200
O1400       O  0.49041108  0.55036306  0.47881290    -0.65800
Ni1401     Ni  0.53620320  0.53735959  0.49896097     1.26300
O1402       O  0.52065694  0.94302892  0.52741060    -0.66100
O1403       O  0.55475165  0.58709116  0.51788927    -0.78400
C1404       C  0.62059347  0.55661852  0.46983150     0.85100
O1405       O  0.58545728  0.56660171  0.47318450    -0.65500
Ni1406     Ni  0.93945448  0.51851001  0.53595349     1.27400
Ni1407     Ni  0.97451945  0.95285663  0.50623558     1.26100
H1408       H  0.50160522  0.98671248  0.46592049     0.39600
C1409       C  0.89111367  0.72593627  0.42772039     0.87000
C1410       C  0.83646859  0.70079115  0.43504888    -0.53200
C1411       C  0.81393183  0.66263837  0.42442926     0.10000
C1412       C  0.85032200  0.65304836  0.40754316     0.20900
C1413       C  0.91633489  0.69851322  0.43511709    -0.53900
C1414       C  0.89394235  0.66007932  0.42560309     0.10100
C1415       C  0.89262643  0.72513829  0.39791095    -0.53400
C1416       C  0.87125316  0.68733964  0.38713598     0.10600
H1417       H  0.81806418  0.71211686  0.44876398     0.15200
H1418       H  0.83521639  0.62312417  0.39813807     0.00900
H1419       H  0.94893749  0.70757407  0.44692947     0.15500
H1420       H  0.90982490  0.75237542  0.38619601     0.15300
C1421       C  0.61997926  0.76356714  0.57721481     0.87000
C1422       C  0.61909654  0.76874015  0.60678258    -0.53200
C1423       C  0.64423617  0.80794654  0.61527662     0.10000
C1424       C  0.66820202  0.83886271  0.59321507     0.20900
C1425       C  0.60162502  0.79378419  0.56587528    -0.53900
C1426       C  0.62586727  0.83281251  0.57467740     0.10100
C1427       C  0.67481715  0.78401538  0.56964632    -0.53400
C1428       C  0.70009022  0.82296638  0.57785620     0.10600
H1429       H  0.59993620  0.74340733  0.61985642     0.15200
H1430       H  0.68873916  0.87054191  0.60004242     0.00900
H1431       H  0.57446057  0.78658584  0.55072038     0.15500
H1432       H  0.69177527  0.76995911  0.55697911     0.15300
O1433       O  0.78770141  0.82702140  0.20132302    -0.80300
O1434       O  0.68774279  0.91858647  0.13585680    -0.65000
O1435       O  0.72215290  0.86028637  0.18751086    -1.11600
C1436       C  0.63830122  0.74911849  0.12967120     1.06600
O1437       O  0.61272720  0.87002969  0.13663238    -0.78200
O1438       O  0.58054433  0.79626279  0.15839500    -0.65800
Ni1439     Ni  0.78898318  0.87991961  0.19821157     1.34900
C1440       C  0.59112741  0.78828112  0.18079688     0.85300
O1441       O  0.73179899  0.93944982  0.18234121    -0.78800
O1442       O  0.79850550  0.93563373  0.19833564    -0.89000
C1443       C  0.64266000  0.90555140  0.12963959     0.84900
O1444       O  0.81233566  0.88324059  0.16359054    -0.67200
O1445       O  0.62028277  0.77092752  0.11879426    -0.86500
C1446       C  0.80908562  0.90608747  0.14604864     0.85700
C1447       C  0.77273021  0.95502621  0.19441322     1.07300
H1448       H  0.70619968  0.84498666  0.12838251     0.39100
O1449       O  0.68368854  0.84168584  0.14257481    -1.09200
O1450       O  0.63460714  0.79501149  0.18715774    -0.65800
Ni1451     Ni  0.69547339  0.81036472  0.16854377     1.26300
O1452       O  0.77091906  0.91256836  0.14403624    -0.66100
O1453       O  0.66746889  0.76073755  0.14896579    -0.78400
C1454       C  0.75365142  0.79105940  0.20268421     0.85100
O1455       O  0.71050723  0.78126138  0.19455730    -0.65500
Ni1456     Ni  0.61901399  0.82134506  0.12825841     1.27400
Ni1457     Ni  0.70739974  0.89117022  0.16181746     1.26100
H1458       H  0.70231969  0.85803841  0.20273258     0.39600
C1459       C  0.56208814  0.58205012  0.09071553     0.87000
C1460       C  0.56362595  0.58107056  0.06096556    -0.53200
C1461       C  0.54501405  0.54296137  0.05083729     0.10000
C1462       C  0.01891743  0.00679454  0.07136201     0.20900
C1463       C  0.00651161  0.55597609  0.09645972    -0.53900
C1464       C  0.98305202  0.01560965  0.08872996     0.10100
C1465       C  0.58773837  0.55603203  0.09985815    -0.53400
C1466       C  0.56424102  0.01535838  0.08851822     0.10600
H1467       H  0.57650263  0.60795986  0.04881657     0.15200
H1468       H  0.00203681  0.97659911  0.06215157     0.00900
H1469       H  0.98290353  0.56596206  0.10721501     0.15500
H1470       H  0.61645938  0.56709686  0.11437845     0.15300
C1471       C  0.84435194  0.61855819  0.23580411     0.87000
C1472       C  0.81203908  0.63954907  0.22789957    -0.53200
C1473       C  0.82745303  0.67804115  0.23699171     0.10000
C1474       C  0.87487052  0.69284131  0.25336445     0.20900
C1475       C  0.89560545  0.64897988  0.22557345    -0.53900
C1476       C  0.91230648  0.68747097  0.23517449     0.10100
C1477       C  0.84804867  0.62196566  0.26532929    -0.53400
C1478       C  0.86329237  0.66035223  0.27479327     0.10600
H1479       H  0.78127872  0.62629054  0.21465488     0.15200
H1480       H  0.88765614  0.72421199  0.26077400     0.00900
H1481       H  0.91604128  0.64210514  0.21054806     0.15500
H1482       H  0.83860359  0.59573724  0.27782624     0.15300
C1483       C  0.85349716  0.92915285  0.12925475    -0.04800
C1484       C  0.84911391  0.94297803  0.10411181    -0.01900
C1485       C  0.89174223  0.96944240  0.09018347     0.03100
C1486       C  0.93866076  0.98382636  0.10161820    -0.04800
C1487       C  0.94328185  0.97006713  0.12653984    -0.01900
C1488       C  0.90153696  0.94163195  0.13974790     0.03100
C1489       C  0.80096963  0.93034009  0.09243925     0.37700
C1490       C  0.99118193  0.98538917  0.13901938     0.37700
C1491       C  0.90883831  0.92726555  0.16489396     0.36200
C1492       C  0.89023292  0.48419443  0.06462256     0.36200
N1493       N  0.91484747  0.91628003  0.18501491    -0.38700
N1494       N  0.88456978  0.49453801  0.04424702    -0.38700
N1495       N  0.02884131  0.99707844  0.14941077    -0.38100
N1496       N  0.76710264  0.42267826  0.08477736    -0.38100
C1497       C  0.62163763  0.70679994  0.12051947    -0.04800
C1498       C  0.57971422  0.67569359  0.13197900    -0.01900
C1499       C  0.56518385  0.63495559  0.12510423     0.03100
C1500       C  0.58577074  0.62513565  0.10283810    -0.04800
C1501       C  0.63073848  0.65613540  0.09285978    -0.01900
C1502       C  0.64835921  0.69668906  0.10168784     0.03100
C1503       C  0.54959147  0.68526372  0.15020133     0.37700
C1504       C  0.66060912  0.64645629  0.07449687     0.37700
C1505       C  0.69349608  0.72819470  0.09106561     0.36200
C1506       C  0.03401349  0.60417456  0.14331993     0.36200
N1507       N  0.72951773  0.75331648  0.08257552    -0.38700
N1508       N  0.00945452  0.58008944  0.15819619    -0.38700
N1509       N  0.68468194  0.63906584  0.05980416    -0.38100
N1510       N  0.52349262  0.69158977  0.16406392    -0.38100
C1511       C  0.58435240  0.98502916  0.09511908    -0.04800
C1512       C  0.55302189  0.94341826  0.09995078    -0.01900
C1513       C  0.57236543  0.91735029  0.10988802     0.03100
C1514       C  0.62343365  0.93228025  0.11590124    -0.04800
C1515       C  0.65535754  0.97255961  0.10816250    -0.01900
C1516       C  0.63603334  0.99810258  0.09729978     0.03100
C1517       C  0.50055366  0.92578568  0.09460332     0.37700
C1518       C  0.70853392  0.98819674  0.11062390     0.37700
C1519       C  0.67742554  0.54268690  0.09457036     0.36200
C1520       C  0.53864367  0.87465890  0.11322008     0.36200
N1521       N  0.70611583  0.57475705  0.08842568    -0.38700
N1522       N  0.51143582  0.84075223  0.11561232    -0.38700
N1523       N  0.75087450  0.50850977  0.13091271    -0.38100
N1524       N  0.95866417  0.90952284  0.09028968    -0.38100
C1525       C  0.76661417  0.75893097  0.21177159    -0.04800
C1526       C  0.77054829  0.75283534  0.23839231    -0.01900
C1527       C  0.78972299  0.72592602  0.24672399     0.03100
C1528       C  0.80430872  0.70456438  0.22837995    -0.04800
C1529       C  0.79845409  0.70977619  0.20156359    -0.01900
C1530       C  0.77942146  0.73675652  0.19339932     0.03100
C1531       C  0.75468597  0.77418309  0.25719042     0.37700
C1532       C  0.81622072  0.69057973  0.18214261     0.37700
C1533       C  0.77516860  0.74329433  0.16595866     0.36200
C1534       C  0.79479190  0.72079036  0.27419061     0.36200
N1535       N  0.77180681  0.74877579  0.14414917    -0.38700
N1536       N  0.79893270  0.71752812  0.29620585    -0.38700
N1537       N  0.83044277  0.67552263  0.16653970    -0.38100
N1538       N  0.74172421  0.79086763  0.27228988    -0.38100
C1539       C  0.78848878  0.49292899  0.20742164    -0.04800
C1540       C  0.75529865  0.50727427  0.21703068    -0.01900
C1541       C  0.77300760  0.54709952  0.22693368     0.03100
C1542       C  0.82476672  0.57380656  0.22676068    -0.04800
C1543       C  0.85756637  0.55658245  0.22009332    -0.01900
C1544       C  0.83961320  0.51778027  0.20894606     0.03100
C1545       C  0.70281014  0.48028287  0.21774862     0.37700
C1546       C  0.90943529  0.57584022  0.22675265     0.37700
C1547       C  0.87891426  0.00892460  0.19678384     0.36200
C1548       C  0.73703018  0.55893124  0.23823790     0.36200
N1549       N  0.90925000  0.00092871  0.18840529    -0.38700
N1550       N  0.70722296  0.56766434  0.24659570    -0.38700
N1551       N  0.95106454  0.58951075  0.23151256    -0.38100
N1552       N  0.66105698  0.45864989  0.21841980    -0.38100
C1553       C  0.55011307  0.76870842  0.19994275    -0.04800
C1554       C  0.54742950  0.73622513  0.21582566    -0.01900
C1555       C  0.00390404  0.71293725  0.22982876     0.03100
C1556       C  0.96160835  0.72000494  0.22705867    -0.04800
C1557       C  0.96645527  0.75551034  0.21399998    -0.01900
C1558       C  0.51093389  0.78013095  0.20089989     0.03100
C1559       C  0.58730343  0.72402411  0.21615088     0.37700
C1560       C  0.92668499  0.76758274  0.21379803     0.37700
C1561       C  0.51667867  0.81766996  0.18868038     0.36200
C1562       C  0.00318846  0.68266912  0.24816003     0.36200
N1563       N  0.52152985  0.84782793  0.17920017    -0.38700
N1564       N  0.00317286  0.65963164  0.26349964    -0.38700
N1565       N  0.89717186  0.77981881  0.21330492    -0.38100
N1566       N  0.61838170  0.71346254  0.21639618    -0.38100
C1567       C  0.86945295  0.68038821  0.35826795    -0.04800
C1568       C  0.82495181  0.65369351  0.34622245    -0.01900
C1569       C  0.82325230  0.64716218  0.31920519     0.03100
C1570       C  0.86534594  0.66848269  0.30340677    -0.04800
C1571       C  0.90931473  0.69628288  0.31522950    -0.01900
C1572       C  0.91190201  0.70109041  0.34246621     0.03100
C1573       C  0.77974374  0.63368648  0.36117124     0.37700
C1574       C  0.95251881  0.72002455  0.29962970     0.37700
C1575       C  0.95921147  0.72624728  0.35413907     0.36200
C1576       C  0.77692712  0.61950334  0.30766412     0.36200
N1577       N  0.99705102  0.74636492  0.36331925    -0.38700
N1578       N  0.73957637  0.59718621  0.29899997    -0.38700
N1579       N  0.98748225  0.74008432  0.28781948    -0.38100
N1580       N  0.74291687  0.61711429  0.37238274    -0.38100
C1581       C  0.66700517  0.58257817  0.45474414    -0.04800
C1582       C  0.70067512  0.56652287  0.44755029    -0.01900
C1583       C  0.74640674  0.59117871  0.43557920     0.03100
C1584       C  0.76090386  0.63320400  0.43127783    -0.04800
C1585       C  0.72445696  0.64764250  0.43513778    -0.01900
C1586       C  0.67838959  0.62291706  0.44703441     0.03100
C1587       C  0.68887065  0.52403599  0.45214371     0.37700
C1588       C  0.73296141  0.68746113  0.42559519     0.37700
C1589       C  0.64321309  0.63968179  0.45124075     0.36200
C1590       C  0.77692493  0.57156389  0.42760084     0.36200
N1591       N  0.61536908  0.65331133  0.45437920    -0.38700
N1592       N  0.79889341  0.55381886  0.42120274    -0.38700
N1593       N  0.73933724  0.71912437  0.41802826    -0.38100
N1594       N  0.67994059  0.49036890  0.45587933    -0.38100
C1595       C  0.95694919  0.85117031  0.45888541    -0.04800
C1596       C  0.96574791  0.82049434  0.47096596    -0.01900
C1597       C  0.94029376  0.77964206  0.46305121     0.03100
C1598       C  0.91230919  0.76944947  0.43973889    -0.04800
C1599       C  0.90147691  0.80042987  0.42857967    -0.01900
C1600       C  0.92396831  0.84080346  0.43800562     0.03100
C1601       C  0.50192009  0.83059988  0.49129686     0.37700
C1602       C  0.86533253  0.79105263  0.40814663     0.37700
C1603       C  0.91367788  0.87208686  0.42597486     0.36200
C1604       C  0.93787252  0.74873794  0.48131813     0.36200
N1605       N  0.90570152  0.89717167  0.41640294    -0.38700
N1606       N  0.93606110  0.72461946  0.49631634    -0.38700
N1607       N  0.83687996  0.78405833  0.39168095    -0.38100
N1608       N  0.53196930  0.83771616  0.50687710    -0.38100
C1609       C  0.92622568  0.56853232  0.46392578    -0.04800
C1610       C  0.88575085  0.57628481  0.47189773    -0.01900
C1611       C  0.87832417  0.60817551  0.46059959     0.03100
C1612       C  0.90314947  0.62672889  0.43752467    -0.04800
C1613       C  0.93748134  0.61433618  0.42673573    -0.01900
C1614       C  0.95032139  0.58645183  0.44022088     0.03100
C1615       C  0.85050534  0.55141345  0.49135684     0.37700
C1616       C  0.96112822  0.63177213  0.40231027     0.37700
C1617       C  0.98785918  0.57615934  0.42931221     0.36200
C1618       C  0.84660297  0.62298275  0.47371958     0.36200
N1619       N  0.01784534  0.56804442  0.42048826    -0.38700
N1620       N  0.82180819  0.63472215  0.48471747    -0.38700
N1621       N  0.97974140  0.64572257  0.38276159    -0.38100
N1622       N  0.82170363  0.53130387  0.50648238    -0.38100
C1623       C  0.75041253  0.84903594  0.56778408    -0.04800
C1624       C  0.78932196  0.87169046  0.58477297    -0.01900
C1625       C  0.83666436  0.89642052  0.57470897     0.03100
C1626       C  0.84525175  0.89792411  0.54780332    -0.04800
C1627       C  0.80702340  0.87450037  0.53091105    -0.01900
C1628       C  0.75921774  0.85161594  0.54069452     0.03100
C1629       C  0.78042818  0.87099826  0.61241201     0.37700
C1630       C  0.81675344  0.87492828  0.50331793     0.37700
C1631       C  0.71833507  0.83476608  0.52270342     0.36200
C1632       C  0.87640824  0.92109819  0.59189002     0.36200
N1633       N  0.68559092  0.82204537  0.50843755    -0.38700
N1634       N  0.90824127  0.94082021  0.60550848    -0.38700
N1635       N  0.81995970  0.38426420  0.48114406    -0.38100
N1636       N  0.77362868  0.87115116  0.63446736    -0.38100
C1637       C  0.59363448  0.71840937  0.56814805    -0.04800
C1638       C  0.61780122  0.69240668  0.57015690    -0.01900
C1639       C  0.59781301  0.65369401  0.55834049     0.03100
C1640       C  0.55285316  0.63944239  0.54491237    -0.04800
C1641       C  0.52683066  0.66344769  0.54443885    -0.01900
C1642       C  0.54527532  0.70111719  0.55739951     0.03100
C1643       C  0.66281200  0.70428475  0.58492414     0.37700
C1644       C  0.48100713  0.64977933  0.53009359     0.37700
C1645       C  0.51089762  0.71833370  0.56219305     0.36200
C1646       C  0.62293517  0.62780208  0.56064579     0.36200
N1647       N  0.48181489  0.73056451  0.56562764    -0.38700
N1648       N  0.64268306  0.60696623  0.56242695    -0.38700
N1649       N  0.94452294  0.63906614  0.51860491    -0.38100
N1650       N  0.69922760  0.71322486  0.59614779    -0.38100
C1651       C  0.61139942  0.86539389  0.56632396    -0.04800
C1652       C  0.56150207  0.85846314  0.56874277    -0.01900
C1653       C  0.54467558  0.88465854  0.55671732     0.03100
C1654       C  0.57778118  0.91822801  0.54196486    -0.04800
C1655       C  0.62885634  0.92883087  0.54330147    -0.01900
C1656       C  0.64571423  0.90258071  0.55539589     0.03100
C1657       C  0.52785927  0.82550700  0.58496348     0.37700
C1658       C  0.66424214  0.96712232  0.53237295     0.37700
C1659       C  0.69830886  0.91460473  0.55618143     0.36200
C1660       C  0.49258843  0.87491576  0.55842154     0.36200
N1661       N  0.74078517  0.92661551  0.55667701    -0.38700
N1662       N  0.45084364  0.86621093  0.56029920    -0.38700
N1663       N  0.69099725  0.49275031  0.52026988    -0.38100
N1664       N  0.50139154  0.80014154  0.59854958    -0.38100
C1665       C  0.52209259  0.51105431  0.96982433    -0.04800
C1666       C  0.54433900  0.99780396  0.98466090    -0.01900
C1667       C  0.55238394  0.00856936  0.01094987     0.03100
C1668       C  0.53979272  0.53465829  0.02252689    -0.04800
C1669       C  0.50890026  0.54608107  0.00743978    -0.01900
C1670       C  0.50113783  0.53527022  0.98100800     0.03100
C1671       C  0.57276798  0.97923529  0.97237474     0.37700
C1672       C  0.48375124  0.56782388  0.01936507     0.37700
C1673       C  0.47103908  0.54892012  0.96575003     0.36200
C1674       C  0.08426195  0.99620547  0.02585005     0.36200
N1675       N  0.44739427  0.56124185  0.95440759    -0.38700
N1676       N  0.11013081  0.98572123  0.03677913    -0.38700
N1677       N  0.46372427  0.58503653  0.02906064    -0.37800
N1678       N  0.09794913  0.96654038  0.96296289    -0.38100
C1679       C  0.64842493  0.81975341  0.64337935    -0.04800
C1680       C  0.63434091  0.84986234  0.65199897    -0.01900
C1681       C  0.63857847  0.86113646  0.67829829     0.03100
C1682       C  0.65997983  0.84472739  0.69638989    -0.04800
C1683       C  0.67329110  0.81401778  0.68800398    -0.01900
C1684       C  0.66736905  0.80154822  0.66174883     0.03100
C1685       C  0.61561491  0.87034959  0.63425935     0.37700
C1686       C  0.69413685  0.79534914  0.70589755     0.37700
C1687       C  0.68365337  0.77148132  0.65353073     0.36200
C1688       C  0.61833276  0.88853605  0.68671343     0.36200
N1689       N  0.69696512  0.74747943  0.64745360    -0.38700
N1690       N  0.60077905  0.90989280  0.69235269    -0.38700
N1691       N  0.71045034  0.77893535  0.71923482    -0.38100
N1692       N  0.60130380  0.88905168  0.62168495    -0.38100
C1693       C  0.90044960  0.80774253  0.88994790    -0.04800
C1694       C  0.87364975  0.83098712  0.88639179    -0.01900
C1695       C  0.89166400  0.87094759  0.89638890     0.03100
C1696       C  0.94009853  0.89069318  0.90698238    -0.04800
C1697       C  0.96225420  0.86507120  0.91437296    -0.01900
C1698       C  0.94201400  0.82395051  0.90665365     0.03100
C1699       C  0.82620908  0.81356545  0.87342166     0.37700
C1700       C  0.50619596  0.88019953  0.93007857     0.37700
C1701       C  0.96498242  0.79896013  0.91625103     0.36200
C1702       C  0.85695593  0.88844274  0.89868562     0.36200
N1703       N  0.48369655  0.77943824  0.92389489    -0.38700
N1704       N  0.82787166  0.90107858  0.90028099    -0.38700
N1705       N  0.54140246  0.89019424  0.94245578    -0.38100
N1706       N  0.78841715  0.79992112  0.86307803    -0.38100
C1707       C  0.60268149  0.52780975  0.88747148    -0.04800
C1708       C  0.60047231  0.52800154  0.86011836    -0.01900
C1709       C  0.64207605  0.55337107  0.84540734     0.03100
C1710       C  0.68729308  0.57816908  0.85764424    -0.04800
C1711       C  0.69048184  0.57607117  0.88485952    -0.01900
C1712       C  0.64787358  0.55223247  0.89976834     0.03100
C1713       C  0.55419052  0.50429062  0.84695415     0.37700
C1714       C  0.73731918  0.59881296  0.89763289     0.37700
C1715       C  0.65069404  0.55391077  0.92773355     0.36200
C1716       C  0.63779982  0.55363478  0.81744148     0.36200
N1717       N  0.65423061  0.55660883  0.95000887    -0.38700
N1718       N  0.63362811  0.55383703  0.79520835    -0.38700
N1719       N  0.77480822  0.61641329  0.90784565    -0.38100
N1720       N  0.51733313  0.48540272  0.83648718    -0.38100
C1721       C  0.96220541  0.54125439  0.89263787    -0.04800
C1722       C  0.99294447  0.57656691  0.87861528    -0.01900
C1723       C  0.97295362  0.60089654  0.86676131     0.03100
C1724       C  0.92221018  0.59156956  0.86967536    -0.04800
C1725       C  0.89191503  0.55729962  0.88473679    -0.01900
C1726       C  0.91192570  0.53286091  0.89640550     0.03100
C1727       C  0.54564861  0.58959104  0.87661075     0.37700
C1728       C  0.84028008  0.54756536  0.88919174     0.37700
C1729       C  0.87846629  0.99761741  0.91789644     0.36200
C1730       C  0.00508557  0.63524006  0.85096569     0.36200
N1731       N  0.85681871  0.97401091  0.93367399    -0.38700
N1732       N  0.03071199  0.66266333  0.83846367    -0.38700
N1733       N  0.79883748  0.04313604  0.90396489    -0.38100
N1734       N  0.58817308  0.60295101  0.87491806    -0.38100
C1735       C  0.75570363  0.76443588  0.79233148    -0.04800
C1736       C  0.70638830  0.75703458  0.79801544    -0.01900
C1737       C  0.68745645  0.78383057  0.78911659     0.03100
C1738       C  0.71721259  0.81812890  0.77405882    -0.04800
C1739       C  0.76583392  0.82447048  0.76741614    -0.01900
C1740       C  0.78524949  0.79826368  0.77687525     0.03100
C1741       C  0.67443492  0.72155400  0.81302988     0.37700
C1742       C  0.79404603  0.85518896  0.74842613     0.37700
C1743       C  0.83458531  0.80465982  0.76915448     0.36200
C1744       C  0.63692292  0.77482663  0.79559363     0.36200
N1745       N  0.87384772  0.80961355  0.76297825    -0.38700
N1746       N  0.59609849  0.76448939  0.80148738    -0.38700
N1747       N  0.81608058  0.87871881  0.73269099    -0.38100
N1748       N  0.64860471  0.69305802  0.82462806    -0.38100
C1749       C  0.98851146  0.77895302  0.80530666    -0.04800
C1750       C  0.52976637  0.80866667  0.81831275    -0.01900
C1751       C  0.57250939  0.83430911  0.80447233     0.03100
C1752       C  0.57468636  0.83121512  0.77721490    -0.04800
C1753       C  0.53244931  0.80342397  0.76400316    -0.01900
C1754       C  0.98941503  0.77753945  0.77792140     0.03100
C1755       C  0.52897497  0.81317899  0.84616063     0.37700
C1756       C  0.53321876  0.80144125  0.73599683     0.37700
C1757       C  0.94665196  0.74895472  0.76406791     0.36200
C1758       C  0.61591569  0.86108473  0.81884536     0.36200
N1759       N  0.91248249  0.72638466  0.75290554    -0.38700
N1760       N  0.65049438  0.88223807  0.83032789    -0.38700
N1761       N  0.53364152  0.79975200  0.71363986    -0.38100
N1762       N  0.52967444  0.81742058  0.86834136    -0.38100
C1763       C  0.76940879  0.54117446  0.77449861    -0.04800
C1764       C  0.72929527  0.02891325  0.76006816    -0.01900
C1765       C  0.70669926  0.98717412  0.75398808     0.03100
C1766       C  0.72973513  0.96169421  0.76047699    -0.04800
C1767       C  0.77881762  0.98157457  0.77016020    -0.01900
C1768       C  0.79674001  0.02111480  0.78067647     0.03100
C1769       C  0.70343844  0.54864892  0.74880985     0.37700
C1770       C  0.81391389  0.96474971  0.76653425     0.37700
C1771       C  0.84327471  0.03751028  0.79448567     0.36200
C1772       C  0.65790690  0.97106058  0.74267209     0.36200
N1773       N  0.88400930  0.54981836  0.79840466    -0.38700
N1774       N  0.61809809  0.95981405  0.73499809    -0.38700
N1775       N  0.84343710  0.95279876  0.76378253    -0.38100
N1776       N  0.68591590  0.56821416  0.73978461    -0.38100
loop_ 
_geom_bond_atom_site_label_1 
_geom_bond_atom_site_label_2 
_geom_bond_distance 
_geom_bond_site_symmetry_2 
_ccdc_geom_bond_type 
O1           Ni7   1.927       .  S
O1           C22   1.272       .  A
O2          Ni25   1.911       .  S
O2           C11   1.270       .  A
O3           Ni7   1.901       .  S
O3          Ni25   1.907       .  S
O3          Ni19   1.920       .  S
O3           H26   0.955       .  S
C4           O21   1.280       .  A
C4           O13   1.275       .  A
C4          C431   1.513       .  S
O5          Ni24   1.923       .  S
O5           C11   1.272       .  A
O6          Ni24   1.916       .  S
O6            C8   1.271       .  A
Ni7          O10   1.921       .  S
Ni7          O12   1.911       .  S
C8           O18   1.272       .  A
C8          C378   1.495       .  S
O9          Ni25   1.924       .  S
O9           C15   1.278       .  A
O10          C15   1.275       .  A
C11         C403   1.497       .  S
O12          C14   1.271       .  A
O13         Ni24   1.916       .  S
C14          O20   1.274       .  A
C14         C417   1.498       .  S
C15         C361   1.514       .  S
H16          O17   0.967       .  S
O17         Ni25   1.912       .  S
O17         Ni19   1.896       .  S
O17         Ni24   1.895       .  S
O18         Ni19   1.934       .  S
Ni19         O23   1.902       .  S
Ni19         O21   1.931       .  S
O20         Ni25   1.937       .  S
C22          O23   1.267       .  A
C22         C392   1.490       .  S
C27          C28   1.534       .  S
C27          C33   1.547       .  S
C27          C31   1.540       .  S
C27         C434   1.560       .  S
C28          H35   1.086       .  S
C28          C29   1.370       .  D
C29          C30   1.549       .  S
C29         C350   1.509       .  S
C30          C34   1.542       .  S
C30          C32   1.545       .  S
C30          H36   1.108       .  S
C31          H37   1.086       .  S
C31          C32   1.366       .  D
C32         C420   1.502       .  S
C33          H38   1.081       .  S
C33          C34   1.368       .  D
C34         C406   1.501       .  S
C39          C40   1.549       .  S
C39          C45   1.538       .  S
C39         C931   1.541       .  S
C39         C364   1.570       .  S
C40          H47   1.079       .  S
C40         C485   1.368       .  D
C41         C930   1.533       .  S
C41         C484   1.364   1_545  D
C41         C389   1.493       .  S
C42          C46   1.538   1_445  S
C42          C44   1.545   1_545  S
C42         C929   1.533   1_455  S
C42          H48   1.110       .  S
C43         C927   1.541   1_455  S
C43          H49   1.086       .  S
C43         C488   1.369       .  D
C44         C487   1.373       .  D
C44         C375   1.508   1_565  S
C45          H50   1.086       .  S
C45        C1378   1.367       .  D
C46        C1377   1.370       .  D
C46         C333   1.493   1_665  S
O51        Ni501   1.922   1_545  S
O51          C72   1.269       .  A
O52         Ni75   1.902       .  S
O52          C61   1.265       .  A
O53         Ni57   1.896       .  S
O53        Ni963   1.891   1_455  S
O53        Ni513   1.920       .  S
O53          H76   0.967   1_455  S
C54          O71   1.279       .  A
C54          O63   1.275   1_455  A
C54         C308   1.494       .  S
O55        Ni518   1.930       .  S
O55          C61   1.272       .  A
O56         Ni74   1.895       .  S
O56          C58   1.264       .  A
Ni57         O60   1.927       .  S
Ni57         O62   1.913       .  S
Ni57        O495   1.921       .  S
C58         O956   1.280       .  A
C58         C277   1.518       .  S
O59         Ni75   1.940       .  S
O59          C65   1.284       .  A
O60         C953   1.279   1_455  A
C61         C294   1.473       .  S
O62          C64   1.269       .  A
O63        Ni962   1.925       .  S
C64          O70   1.271       .  A
C64         C322   1.506       .  S
C65         O948   1.279       .  A
C65         C263   1.489       .  S
H66          O67   0.966   1_455  S
O67         Ni69   1.908   1_655  S
O67       Ni1407   1.920   1_545  S
O67        Ni962   1.896       .  S
O68         Ni69   1.960   1_655  S
O68         C946   1.280       .  A
Ni69         O73   1.914       .  S
Ni69         O71   1.929       .  S
Ni69        O497   1.922   1_545  S
O70        Ni963   1.934   1_455  S
C72          O73   1.270       .  A
C72         C249   1.500       .  S
Ni74        O499   1.918   1_545  S
Ni74        O951   1.925       .  S
Ni74        O955   1.895       .  S
Ni75        O958   1.934       .  S
Ni75        O941   1.891       .  S
Ni75       O1399   1.920       .  S
C77          C78   1.534       .  S
C77          C83   1.536       .  S
C77          C81   1.553       .  S
C77         C266   1.560       .  S
C78          H85   1.084       .  S
C78          C79   1.374       .  D
C79          C80   1.549       .  S
C79         C252   1.523       .  S
C80          C84   1.533       .  S
C80          C82   1.544       .  S
C80          H86   1.101       .  S
C81          H87   1.081       .  S
C81          C82   1.369       .  D
C82         C280   1.500       .  S
C83          H88   1.086       .  S
C83          C84   1.360       .  D
C84         C235   1.488       .  S
C89          C90   1.537       .  S
C89          C95   1.531       .  S
C89          C93   1.554       .  S
C89         C305   1.559       .  S
C90          H97   1.086       .  S
C90          C91   1.370       .  D
C91          C92   1.553       .  S
C91         C347   1.512       .  S
C92          C96   1.546       .  S
C92          C94   1.543       .  S
C92          H98   1.110       .  S
C93          H99   1.082       .  S
C93          C94   1.372       .  D
C94         C319   1.511       .  S
C95         H100   1.086       .  S
C95          C96   1.357       .  D
C96         C291   1.490       .  S
O101       Ni107   1.922       .  S
O101        C122   1.267       .  A
O102       Ni125   1.917       .  S
O102        C111   1.270       .  A
O103       Ni107   1.902       .  S
O103       Ni125   1.913       .  S
O103       Ni119   1.913       .  S
O103        H126   0.966       .  S
C104        O121   1.277       .  A
C104        O113   1.278       .  A
C104        C165   1.483       .  S
O105       Ni124   1.934       .  S
O105        C111   1.272       .  A
O106       Ni124   1.907       .  S
O106        C108   1.268       .  A
Ni107       O110   1.911       .  S
Ni107       O112   1.896       .  S
C108        O118   1.268       .  A
C108        C221   1.498       .  S
O109       Ni125   1.917       .  S
O109        C115   1.275       .  A
O110        C115   1.273       .  A
C111        C182   1.512       .  S
O112        C114   1.267       .  A
O113       Ni124   1.934       .  S
C114        O120   1.277       .  A
C114        C151   1.518       .  S
C115        C651   1.481       .  S
H116        O117   0.967       .  S
O117       Ni125   1.908       .  S
O117       Ni119   1.901       .  S
O117       Ni124   1.908       .  S
O118       Ni119   1.923       .  S
Ni119       O123   1.904       .  S
Ni119       O121   1.919       .  S
O120       Ni125   1.943       .  S
C122        O123   1.264       .  A
C122        C193   1.471       .  S
C127        C128   1.542       .  S
C127        C133   1.540       .  S
C127       C1019   1.544       .  S
C127        C168   1.555       .  S
C128        H135   1.085       .  S
C128        C129   1.367       .  D
C129       C1462   1.541       .  S
C129        C336   1.495       .  S
C130        C132   1.545       .  S
C130       C1461   1.539       .  S
C130       C1022   1.548       .  S
C130        H136   1.104       .  S
C131       C1015   1.543       .  S
C131        H137   1.082       .  S
C131        C576   1.358       .  D
C132        C575   1.360       .  D
C132        C154   1.496       .  S
C133        H138   1.086       .  S
C133        C578   1.374       .  D
C134       C1018   1.548       .  S
C134        C577   1.376       .  D
C134        C179   1.526       .  S
C139        C140   1.536       .  S
C139        C145   1.533       .  S
C139        C143   1.552       .  S
C139        C210   1.557       .  S
C140        H147   1.086       .  S
C140        C141   1.364       .  D
C141        C142   1.542       .  S
C141        C196   1.489       .  S
C142        C146   1.539       .  S
C142        C144   1.539       .  S
C142        H148   1.109       .  S
C143        H149   1.084       .  S
C143        C144   1.370       .  D
C144        C224   1.503       .  S
C145        H150   1.086       .  S
C145        C146   1.366       .  D
C146        C238   1.490       .  S
C151        C152   1.426       .  A
C151        C156   1.429       .  A
C152        C153   1.421       .  A
C152        C157   1.451       .  S
C153        C154   1.410       .  A
C153        C604   1.449       .  S
C154        C155   1.410       .  A
C155        C156   1.407       .  A
C155        C158   1.454       .  S
C156        C159   1.455       .  S
C157        N608   1.158       .  T
C158        N163   1.157       .  T
C159        N161   1.158       .  T
C160        C597   1.450       .  S
C160        N162   1.157       .  T
N164        C601   1.157       .  T
C165        C166   1.406       .  A
C165        C170   1.408       .  A
C166        C167   1.406       .  A
C166        C171   1.450       .  S
C167        C168   1.424       .  A
C167       C1062   1.451       .  S
C168        C169   1.427       .  A
C169        C170   1.418       .  A
C169        C172   1.449       .  S
C170        C173   1.451       .  S
C171        N178   1.156       .  T
C172        N177   1.157       .  T
C173        N175   1.157       .  T
C174       C1055   1.451       .  S
C174        N176   1.157       .  T
C179        C180   1.425       .  A
C179        C184   1.424       .  A
C180        C181   1.415       .  A
C180        C185   1.449       .  S
C181        C182   1.420       .  A
C181        C188   1.455       .  S
C182        C183   1.418       .  A
C183        C184   1.417       .  A
C183        C186   1.452       .  S
C184        C631   1.451       .  S
C185       N1080   1.158   1_455  T
C186        N635   1.158       .  T
C187        C628   1.452   1_545  S
C187        N189   1.157       .  T
C188        N190   1.158       .  T
N191        C630   1.158   1_545  T
N192       C1073   1.158       .  T
C193        C194   1.410       .  A
C193        C198   1.406       .  A
C194        C195   1.411       .  A
C194        C199   1.451       .  S
C195        C196   1.414       .  A
C195        C202   1.449       .  S
C196        C197   1.419       .  A
C197        C198   1.406       .  A
C197        C200   1.452       .  S
C198        C201   1.452       .  S
C199        N206   1.157       .  T
C200        N205   1.157       .  T
C201        N203   1.157       .  T
C202        N204   1.157       .  T
C207        C559   1.504       .  S
C207        C208   1.415   1_565  A
C207        C212   1.417   1_565  A
C208        C209   1.418       .  A
C208        C213   1.453   1_545  S
C209        C210   1.428       .  A
C209        C216   1.451       .  S
C210        C211   1.419       .  A
C211        C212   1.409       .  A
C211        C214   1.449       .  S
C212        C659   1.450       .  S
C213        N220   1.158       .  T
C214        N219   1.156       .  T
C215        C656   1.453       .  S
C215        N217   1.156       .  T
C216        N218   1.157       .  T
C221        C222   1.418       .  A
C221        C226   1.415       .  A
C222       C1111   1.411       .  A
C222        C227   1.452       .  S
C223        C224   1.414       .  A
C223       C1110   1.411       .  A
C223        C230   1.451       .  S
C224        C225   1.415       .  A
C225       C1114   1.413       .  A
C225        C228   1.447       .  S
C226       C1113   1.413   1_455  A
C226        C229   1.452       .  S
C227        N234   1.157       .  T
C228        N233   1.157       .  T
C229        N231   1.157       .  T
C230        N232   1.157       .  T
C235        C236   1.411       .  A
C235        C240   1.411       .  A
C236        C237   1.410       .  A
C236        C241   1.451       .  S
C237        C238   1.414       .  A
C237        C244   1.450       .  S
C238        C239   1.413       .  A
C239        C240   1.409       .  A
C239        C242   1.447       .  S
C240        C243   1.452       .  S
C241        N248   1.157       .  T
C242        N247   1.156       .  T
C243        N245   1.157       .  T
C244        N246   1.157       .  T
C249        C250   1.417       .  A
C249        C254   1.413       .  A
C250        C251   1.413       .  A
C250        C255   1.456       .  S
C251        C252   1.426       .  A
C251        C258   1.449       .  S
C252        C253   1.425       .  A
C253        C254   1.412       .  A
C253        C256   1.452       .  S
C254        C257   1.453       .  S
C255        N262   1.158   1_545  T
C256        N261   1.157       .  T
C257        N259   1.158       .  T
C258        N260   1.158       .  T
C263        C264   1.408       .  A
C263        C268   1.405       .  A
C264        C265   1.411       .  A
C264       C1157   1.447       .  S
C265        C266   1.422       .  A
C265        C272   1.450       .  S
C266        C267   1.434       .  A
C267        C268   1.418       .  A
C267        C270   1.451       .  S
C268        C271   1.452       .  S
C269       C1152   1.447   1_455  S
C269        N276   1.155       .  T
C270        N275   1.158       .  T
C271        N273   1.157       .  T
C272        N274   1.158       .  T
C277        C278   1.428       .  A
C277        C282   1.421       .  A
C278        C279   1.409       .  A
C278        C283   1.454       .  S
C279        C280   1.409       .  A
C279        C286   1.453       .  S
C280        C281   1.413       .  A
C281        C282   1.424       .  A
C281        C284   1.448       .  S
C282        C285   1.449       .  S
C283        N290   1.158       .  T
C284        N289   1.157       .  T
C285        N287   1.158       .  T
C286        N288   1.157       .  T
C291        C292   1.411       .  A
C291        C296   1.421       .  A
C292        C293   1.412       .  A
C292        C297   1.450       .  S
C293        C294   1.411       .  A
C293        C300   1.450       .  S
C294        C295   1.406       .  A
C295        C296   1.407       .  A
C295        C298   1.453       .  S
C296        C299   1.452       .  S
C297        N304   1.157       .  T
C298        N747   1.157       .  T
C299        N301   1.157       .  T
C300        N302   1.157       .  T
N303        C742   1.157       .  T
C305        C306   1.432       .  A
C305        C310   1.420       .  A
C306        C307   1.416       .  A
C306        C311   1.451       .  S
C307        C308   1.408       .  A
C307        C314   1.452       .  S
C308        C309   1.412       .  A
C309        C310   1.411       .  A
C309        C312   1.449   1_455  S
C310        C313   1.449       .  S
C311        N318   1.157       .  T
C312       N1205   1.155       .  T
C313        N315   1.157   1_455  T
C314        N316   1.157       .  T
N317       C1200   1.156       .  T
C319        C320   1.416       .  A
C319        C324   1.417       .  A
C320        C321   1.415       .  A
C320        C325   1.452       .  S
C321        C322   1.420       .  A
C321        C328   1.450   1_455  S
C322        C323   1.417       .  A
C323        C324   1.418       .  A
C323        C326   1.453       .  S
C324        C327   1.446       .  S
C325        N332   1.157   1_455  T
C326        N775   1.157       .  T
C327        N329   1.157       .  T
C328        N330   1.157       .  T
N331        C770   1.158       .  T
C333        C338   1.413   1_455  A
C333        C778   1.409   1_545  A
C334        C335   1.410   1_556  A
C334        C777   1.415       .  A
C334        C339   1.446       .  S
C335        C780   1.407       .  A
C335       C1230   1.451       .  S
C336        C337   1.417       .  A
C336        C779   1.411       .  A
C337        C338   1.416   1_454  A
C337        C340   1.451   1_455  S
C338        C341   1.448       .  S
C339       N1234   1.155       .  T
C340        N345   1.157       .  T
C341        N343   1.157       .  T
C342       C1223   1.451       .  S
C342        N344   1.157       .  T
N346       C1227   1.155       .  T
C347        C348   1.414       .  A
C347        C352   1.421       .  A
C348        C349   1.413       .  A
C348        C353   1.447       .  S
C349        C350   1.414       .  A
C349        C356   1.449       .  S
C350        C351   1.414       .  A
C351        C352   1.420       .  A
C351        C354   1.449       .  S
C352        C355   1.448       .  S
C353        N360   1.156       .  T
C354        N359   1.157       .  T
C355        N357   1.156       .  T
C356        N358   1.155       .  T
C361        C362   1.414       .  A
C361        C366   1.417       .  A
C362        C363   1.420       .  A
C362        C367   1.454       .  S
C363        C364   1.433       .  A
C363        C370   1.446       .  S
C364        C365   1.428       .  A
C365        C366   1.414       .  A
C365       C1256   1.449       .  S
C366        C369   1.454       .  S
C367        N374   1.158       .  T
C368       C1253   1.449   1_455  S
C368        N373   1.156       .  T
C369       N1259   1.158       .  T
C370        N372   1.157       .  T
N371       C1257   1.158       .  T
C375        C376   1.420       .  A
C375        C380   1.421       .  A
C376        C377   1.410       .  A
C376        C381   1.454   1_545  S
C377        C378   1.412       .  A
C377        C384   1.449       .  S
C378        C379   1.412       .  A
C379        C380   1.420       .  A
C379        C382   1.450       .  S
C380        C383   1.449       .  S
C381        N388   1.158       .  T
C382        N387   1.157       .  T
C383        N385   1.157       .  T
C384        N386   1.156       .  T
C389        C390   1.412       .  A
C389        C394   1.416       .  A
C390        C391   1.410       .  A
C390       C1283   1.447       .  S
C391        C392   1.416       .  A
C391        C398   1.454       .  S
C392        C393   1.415       .  A
C393        C394   1.410       .  A
C393        C396   1.452       .  S
C394        C841   1.453   1_545  S
C395       C1278   1.447   1_455  S
C395        N402   1.156       .  T
C396        N845   1.158       .  T
C397        C838   1.452       .  S
C397        N399   1.157       .  T
C398        N400   1.158       .  T
N401        C840   1.157       .  T
C403        C404   1.417       .  A
C403        C408   1.417       .  A
C404        C405   1.411       .  A
C404        C409   1.455       .  S
C405        C406   1.414       .  A
C405        C412   1.446       .  S
C406        C407   1.416       .  A
C407        C408   1.414       .  A
C407        C410   1.452       .  S
C408        C411   1.452       .  S
C409        N416   1.158       .  T
C410        N415   1.157       .  T
C411        N413   1.158       .  T
C412        N414   1.156       .  T
C417        C422   1.415       .  A
C417       C1306   1.417       .  A
C418        C419   1.410       .  A
C418       C1305   1.417   1_455  A
C418        C423   1.450       .  S
C419        C420   1.418       .  A
C419        C426   1.454       .  S
C420        C421   1.415       .  A
C421       C1310   1.419   1_455  A
C421        C424   1.450       .  S
C422       C1309   1.419       .  A
C422        C425   1.449       .  S
C423        N430   1.156       .  T
C424        N429   1.157       .  T
C425        N427   1.157       .  T
C426        N428   1.158       .  T
C431        C876   1.421       .  A
C431        C880   1.416       .  A
C432        C433   1.410       .  A
C432        C875   1.420       .  A
C432        C881   1.455       .  S
C433        C434   1.425       .  A
C433        C440   1.450       .  S
C434        C435   1.427       .  A
C435        C436   1.417       .  A
C435        C438   1.447       .  S
C436        C875   1.417       .  A
C436        C439   1.453       .  S
C437        C876   1.455       .  S
C437        N444   1.158       .  T
C438        N443   1.157       .  T
C439        N885   1.158       .  T
C440        N442   1.157       .  T
N441        C883   1.158       .  T
O445       Ni451   1.923       .  S
O445        C466   1.270       .  A
O446       Ni469   1.907       .  S
O446        C455   1.268       .  A
O447       Ni451   1.903       .  S
O447       Ni469   1.908       .  S
O447       Ni463   1.914       .  S
O447        H470   0.967       .  S
C448        O465   1.274       .  A
C448        O457   1.271       .  A
C448        C875   1.512       .  S
O449       Ni468   1.918       .  S
O449        C455   1.269       .  A
O450       Ni468   1.901       .  S
O450        C452   1.269       .  A
Ni451       O454   1.915       .  S
Ni451       O456   1.913       .  S
C452        O462   1.275       .  A
C452        C822   1.496       .  S
O453       Ni469   1.933       .  S
O453        C459   1.279       .  A
O454        C459   1.273       .  A
C455        C847   1.489       .  S
O456        C458   1.271       .  A
O457       Ni468   1.915       .  S
C458        O464   1.273       .  A
C458        C861   1.499       .  S
C459        C805   1.517       .  S
H460        O461   0.970       .  S
O461       Ni469   1.920       .  S
O461       Ni463   1.916       .  S
O461       Ni468   1.906       .  S
O462       Ni463   1.945       .  S
Ni463       O467   1.917       .  S
Ni463       O465   1.919       .  S
O464       Ni469   1.935       .  S
C466        O467   1.269       .  A
C466        C836   1.502       .  S
C471        C472   1.537       .  S
C471        C477   1.547       .  S
C471        C475   1.539       .  S
C471        C878   1.562       .  S
C472        H479   1.086       .  S
C472        C473   1.371       .  D
C473        C474   1.544       .  S
C473        C794   1.506       .  S
C474        C478   1.540       .  S
C474        C476   1.546       .  S
C474        H480   1.110       .  S
C475        H481   1.086       .  S
C475        C476   1.367       .  D
C476        C864   1.501       .  S
C477        H482   1.081       .  S
C477        C478   1.366       .  D
C478        C850   1.497       .  S
C483        C484   1.547       .  S
C483        C489   1.538       .  S
C483       C1375   1.545       .  S
C483        C808   1.566       .  S
C484        H491   1.080       .  S
C485       C1374   1.543       .  S
C485        C833   1.508       .  S
C486       C1373   1.543   1_455  S
C486        C490   1.541       .  S
C486        C488   1.547       .  S
C486        H492   1.110       .  S
C487       C1371   1.544   1_455  S
C487        H493   1.085       .  S
C488        C819   1.499       .  S
C489        H494   1.086       .  S
C489        C934   1.370       .  D
C490        C933   1.367   1_455  D
C490        C777   1.497       .  S
O495        C516   1.269       .  A
O496       Ni519   1.897       .  S
O496        C505   1.263       .  A
O497       Ni501   1.908       .  S
O497      Ni1407   1.895   1_455  S
O497        H520   0.967       .  S
C498        O515   1.279       .  A
C498        O507   1.277   1_455  A
C498        C752   1.491       .  S
O499        C505   1.268       .  A
O500       Ni518   1.904       .  S
O500        C502   1.269       .  A
Ni501       O504   1.929       .  S
Ni501       O506   1.911       .  S
C502       O1400   1.278       .  A
C502        C721   1.519       .  S
O503       Ni519   1.940       .  S
O503        C509   1.282       .  A
O504       C1397   1.278   1_455  A
C505        C738   1.465       .  S
O506        C508   1.268       .  A
O507      Ni1406   1.926       .  S
C508        O514   1.268       .  A
C508        C766   1.496       .  S
C509       O1392   1.278       .  A
C509        C707   1.492       .  S
H510        O511   0.966   1_455  S
O511       Ni963   1.920       .  S
O511       Ni513   1.910   1_655  S
O511      Ni1406   1.899       .  S
O512       Ni513   1.949   1_655  S
O512       C1390   1.278       .  A
Ni513       O517   1.927       .  S
Ni513       O515   1.926       .  S
O514      Ni1407   1.924   1_455  S
C516        O517   1.271       .  A
C516        C693   1.514       .  S
Ni518      O1395   1.926       .  S
Ni518      O1399   1.899       .  S
Ni519      O1402   1.924       .  S
Ni519      O1385   1.895       .  S
Ni519       O955   1.919   1_565  S
C521        C522   1.539       .  S
C521        C527   1.541       .  S
C521        C525   1.548       .  S
C521        C710   1.566       .  S
C522        H529   1.085       .  S
C522        C523   1.376       .  D
C523        C524   1.552       .  S
C523        C696   1.526       .  S
C524        C528   1.545       .  S
C524        C526   1.542       .  S
C524        H530   1.101       .  S
C525        H531   1.081       .  S
C525        C526   1.362       .  D
C526        C724   1.498       .  S
C527        H532   1.084       .  S
C527        C528   1.367       .  D
C528        C679   1.511       .  S
C533        C534   1.541       .  S
C533        C539   1.534       .  S
C533        C537   1.552       .  S
C533        C749   1.564       .  S
C534        H541   1.086       .  S
C534        C535   1.373       .  D
C535        C536   1.543       .  S
C535        C791   1.506       .  S
C536        C540   1.539       .  S
C536        C538   1.535       .  S
C536        H542   1.109       .  S
C537        H543   1.082       .  S
C537        C538   1.370       .  D
C538        C763   1.502       .  S
C539        H544   1.086       .  S
C539        C540   1.361       .  D
C540        C735   1.485       .  S
O545       Ni551   1.927       .  S
O545        C566   1.270       .  A
O546       Ni569   1.919       .  S
O546        C555   1.270       .  A
O547       Ni551   1.902       .  S
O547       Ni569   1.918       .  S
O547       Ni563   1.918       .  S
O547        H570   0.966       .  S
C548        O565   1.277       .  A
C548        O557   1.276       .  A
C548        C609   1.484       .  S
O549       Ni568   1.922       .  S
O549        C555   1.269       .  A
O550       Ni568   1.914       .  S
O550        C552   1.269       .  A
Ni551       O554   1.933       .  S
Ni551       O556   1.903       .  S
C552        O562   1.267       .  A
C552        C665   1.494       .  S
O553       Ni569   1.915       .  S
O553        C559   1.276       .  A
O554        C559   1.276       .  A
C555        C626   1.514       .  S
O556        C558   1.266       .  A
O557       Ni568   1.927       .  S
C558        O564   1.275       .  A
C558        C595   1.502       .  S
H560        O561   0.967       .  S
O561       Ni569   1.914       .  S
O561       Ni563   1.897       .  S
O561       Ni568   1.908       .  S
O562       Ni563   1.918       .  S
Ni563       O567   1.890       .  S
Ni563       O565   1.927       .  S
O564       Ni569   1.946       .  S
C566        O567   1.261       .  A
C566        C637   1.469       .  S
C571        C572   1.538       .  S
C571        C577   1.540       .  S
C571       C1463   1.545       .  S
C571        C612   1.554       .  S
C572        H579   1.086       .  S
C572        C573   1.363       .  D
C573       C1018   1.539       .  S
C573        C780   1.489       .  S
C574       C1017   1.541       .  S
C574       C1466   1.544       .  S
C574        C576   1.539       .  S
C574        H580   1.105   1_545  S
C575       C1459   1.545       .  S
C575        H581   1.082       .  S
C576        C598   1.489   1_545  S
C577        H582   1.084       .  S
C578       C1462   1.544       .  S
C578        C623   1.518   1_545  S
C583        C584   1.536       .  S
C583        C589   1.532       .  S
C583        C587   1.547       .  S
C583        C654   1.554       .  S
C584        H591   1.085       .  S
C584        C585   1.363       .  D
C585        C586   1.545       .  S
C585        C640   1.490       .  S
C586        C590   1.548       .  S
C586        C588   1.540       .  S
C586        H592   1.110       .  S
C587        H593   1.084       .  S
C587        C588   1.368       .  D
C588        C668   1.499       .  S
C589        H594   1.086       .  S
C589        C590   1.367       .  D
C590        C682   1.505       .  S
C595        C596   1.422       .  A
C595        C600   1.423       .  A
C596        C597   1.417       .  A
C596        C601   1.450       .  S
C597        C598   1.408       .  A
C598        C599   1.412       .  A
C599        C600   1.407       .  A
C599        C602   1.454       .  S
C600        C603   1.455       .  S
C602        N607   1.158       .  T
C603        N605   1.158       .  T
C604        N606   1.157       .  T
C609        C610   1.407       .  A
C609        C614   1.408       .  A
C610        C611   1.406       .  A
C610        C615   1.449       .  S
C611        C612   1.422       .  A
C611       C1506   1.451       .  S
C612        C613   1.428       .  A
C613        C614   1.418       .  A
C613        C616   1.450       .  S
C614        C617   1.450       .  S
C615        N622   1.156       .  T
C616        N621   1.157       .  T
C617        N619   1.157       .  T
C618       C1499   1.451       .  S
C618        N620   1.158       .  T
C623        C624   1.421       .  A
C623        C628   1.419       .  A
C624        C625   1.414       .  A
C624        C629   1.450       .  S
C625        C626   1.425       .  A
C625        C632   1.456       .  S
C626        C627   1.421       .  A
C627        C628   1.416       .  A
C627        C630   1.452       .  S
C629       N1524   1.158   1_455  T
C631        N633   1.157       .  T
C632        N634   1.158       .  T
N636       C1517   1.158       .  T
C637        C638   1.407       .  A
C637        C642   1.407       .  A
C638        C639   1.410       .  A
C638        C643   1.450       .  S
C639        C640   1.414       .  A
C639        C646   1.449       .  S
C640        C641   1.421       .  A
C641        C642   1.406       .  A
C641        C644   1.452       .  S
C642        C645   1.453       .  S
C643        N650   1.157       .  T
C644        N649   1.157       .  T
C645        N647   1.157       .  T
C646        N648   1.157       .  T
C651        C652   1.404       .  A
C651        C656   1.408       .  A
C652        C653   1.414       .  A
C652        C657   1.453       .  S
C653        C654   1.434       .  A
C653        C660   1.450       .  S
C654        C655   1.425       .  A
C655        C656   1.407       .  A
C655        C658   1.449       .  S
C657        N664   1.157       .  T
C658        N663   1.156       .  T
C659        N661   1.156       .  T
C660        N662   1.157       .  T
C665        C666   1.418       .  A
C665        C670   1.413       .  A
C666       C1555   1.410       .  A
C666        C671   1.452       .  S
C667       C1554   1.410       .  A
C667        C668   1.413       .  A
C667        C674   1.451       .  S
C668        C669   1.414       .  A
C669       C1558   1.413       .  A
C669        C672   1.445       .  S
C670       C1557   1.413   1_455  A
C670        C673   1.452       .  S
C671        N678   1.157       .  T
C672        N677   1.156       .  T
C673        N675   1.157       .  T
C674        N676   1.157       .  T
C679        C680   1.416       .  A
C679        C684   1.420       .  A
C680        C681   1.414       .  A
C680        C685   1.450       .  S
C681        C682   1.417       .  A
C681        C688   1.451       .  S
C682        C683   1.413       .  A
C683        C684   1.417       .  A
C683        C686   1.449       .  S
C684        C687   1.451       .  S
C685        N692   1.157       .  T
C686        N691   1.157       .  T
C687        N689   1.157       .  T
C688        N690   1.156       .  T
C693        C694   1.423       .  A
C693        C698   1.420       .  A
C694        C695   1.414       .  A
C694        C699   1.456       .  S
C695        C696   1.422       .  A
C695        C702   1.449       .  S
C696        C697   1.423       .  A
C697        C698   1.420       .  A
C697        C700   1.452       .  S
C698        C701   1.452       .  S
C699        N706   1.158       .  T
C700        N705   1.157       .  T
C701        N703   1.158       .  T
C702        N704   1.158       .  T
C707        C708   1.408       .  A
C707        C712   1.406       .  A
C708        C709   1.414       .  A
C708       C1601   1.449       .  S
C709        C710   1.427       .  A
C709        C716   1.450       .  S
C710        C711   1.432       .  A
C711        C712   1.419       .  A
C711        C714   1.450       .  S
C712        C715   1.451       .  S
C713       C1596   1.449   1_455  S
C713        N720   1.156       .  T
C714        N719   1.157       .  T
C715        N717   1.157       .  T
C716        N718   1.158       .  T
C721        C722   1.425       .  A
C721        C726   1.426       .  A
C722        C723   1.408       .  A
C722        C727   1.453       .  S
C723        C724   1.410       .  A
C723        C730   1.452       .  S
C724        C725   1.409       .  A
C725        C726   1.422       .  A
C725        C728   1.449       .  S
C726        C729   1.449       .  S
C727        N734   1.158       .  T
C728        N733   1.157       .  T
C729        N731   1.157       .  T
C730        N732   1.157       .  T
C735        C736   1.413       .  A
C735        C740   1.419       .  A
C736        C737   1.410       .  A
C736        C741   1.450       .  S
C737        C738   1.409       .  A
C737        C744   1.451       .  S
C738        C739   1.405       .  A
C739        C740   1.403       .  A
C739        C742   1.453       .  S
C740        C743   1.453       .  S
C741        N748   1.157       .  T
C743        N745   1.157       .  T
C744        N746   1.157       .  T
C749        C750   1.432       .  A
C749        C754   1.426       .  A
C750        C751   1.417       .  A
C750        C755   1.451       .  S
C751        C752   1.407       .  A
C751        C758   1.453       .  S
C752        C753   1.409       .  A
C753        C754   1.414       .  A
C753        C756   1.453   1_455  S
C754        C757   1.447       .  S
C755        N762   1.157       .  T
C756       N1649   1.157       .  T
C757        N759   1.157   1_455  T
C758        N760   1.157       .  T
N761       C1644   1.157       .  T
C763        C764   1.414       .  A
C763        C768   1.417       .  A
C764        C765   1.410       .  A
C764        C769   1.452       .  S
C765        C766   1.417       .  A
C765        C772   1.450   1_455  S
C766        C767   1.414       .  A
C767        C768   1.414       .  A
C767        C770   1.453       .  S
C768        C771   1.447       .  S
C769        N776   1.157       .  T
C771        N773   1.157       .  T
C772        N774   1.157       .  T
C777        C782   1.415       .  A
C778        C779   1.407   1_566  A
C778        C783   1.449       .  S
C779       C1674   1.449   1_545  S
C780        C781   1.412       .  A
C781        C782   1.414   1_554  A
C781        C784   1.452   1_455  S
C782        C785   1.447   1_455  S
C783       N1678   1.156       .  T
C784        N789   1.157       .  T
C785        N787   1.156       .  T
C786       C1667   1.449   1_565  S
C786        N788   1.156       .  T
N790       C1671   1.156       .  T
C791        C792   1.414       .  A
C791        C796   1.417       .  A
C792        C793   1.411       .  A
C792        C797   1.447       .  S
C793        C794   1.412       .  A
C793        C800   1.448       .  S
C794        C795   1.416       .  A
C795        C796   1.419       .  A
C795        C798   1.447       .  S
C796        C799   1.450       .  S
C797        N804   1.156       .  T
C798        N803   1.157       .  T
C799        N801   1.156       .  T
C800        N802   1.155       .  T
C805        C806   1.417       .  A
C805        C810   1.424       .  A
C806        C807   1.420       .  A
C806        C811   1.453       .  S
C807        C808   1.427       .  A
C807        C814   1.448       .  S
C808        C809   1.421       .  A
C809        C810   1.415       .  A
C809       C1700   1.448       .  S
C810        C813   1.454       .  S
C811        N818   1.158       .  T
C812       C1697   1.448   1_455  S
C812        N817   1.155       .  T
C813       N1703   1.158       .  T
C814        N816   1.157       .  T
N815       C1701   1.158       .  T
C819        C820   1.415       .  A
C819        C824   1.415       .  A
C820        C821   1.409       .  A
C820        C825   1.454       .  S
C821        C822   1.417       .  A
C821        C828   1.452       .  S
C822        C823   1.414       .  A
C823        C824   1.419       .  A
C823        C826   1.450       .  S
C824        C827   1.448       .  S
C825        N832   1.157       .  T
C826        N831   1.157       .  T
C827        N829   1.157       .  T
C828        N830   1.157       .  T
C833        C834   1.415       .  A
C833        C838   1.419       .  A
C834        C835   1.415       .  A
C834       C1727   1.447       .  S
C835        C836   1.419       .  A
C835        C842   1.454       .  S
C836        C837   1.416       .  A
C837        C838   1.414       .  A
C837        C840   1.452       .  S
C839       C1722   1.447   1_455  S
C839        N846   1.157       .  T
C841        N843   1.157       .  T
C842        N844   1.157       .  T
C847        C848   1.416       .  A
C847        C852   1.412       .  A
C848        C849   1.410       .  A
C848        C853   1.455       .  S
C849        C850   1.413       .  A
C849        C856   1.446       .  S
C850        C851   1.418       .  A
C851        C852   1.412       .  A
C851        C854   1.451       .  S
C852        C855   1.452       .  S
C853        N860   1.158       .  T
C854        N859   1.157       .  T
C855        N857   1.157       .  T
C856        N858   1.156       .  T
C861       C1750   1.416       .  A
C861        C866   1.417       .  A
C862       C1749   1.416   1_455  A
C862        C863   1.409       .  A
C862        C867   1.450       .  S
C863        C864   1.417       .  A
C863        C870   1.454       .  S
C864        C865   1.414       .  A
C865       C1754   1.420   1_455  A
C865        C868   1.450       .  S
C866       C1753   1.420       .  A
C866        C869   1.450       .  S
C867        N874   1.156       .  T
C868        N873   1.157       .  T
C869        N871   1.157       .  T
C870        N872   1.157       .  T
C876        C877   1.412   1_545  A
C877        C878   1.425       .  A
C877        C884   1.449       .  S
C878        C879   1.426       .  A
C879        C880   1.416   1_565  A
C879        C882   1.447       .  S
C880        C883   1.452       .  S
C881        N888   1.158       .  T
C882        N887   1.157       .  T
C884        N886   1.156       .  T
O889       Ni895   1.927       .  S
O889        C910   1.272       .  A
O890       Ni913   1.911       .  S
O890        C899   1.270       .  A
O891       Ni895   1.901       .  S
O891       Ni913   1.907       .  S
O891       Ni907   1.920       .  S
O891        H914   0.955       .  S
C892        O909   1.280       .  A
C892        O901   1.275       .  A
C892       C1319   1.513       .  S
O893       Ni912   1.923       .  S
O893        C899   1.273       .  A
O894       Ni912   1.916       .  S
O894        C896   1.271       .  A
Ni895       O898   1.921       .  S
Ni895       O900   1.911       .  S
C896        O906   1.272       .  A
C896       C1266   1.495       .  S
O897       Ni913   1.924       .  S
O897        C903   1.278       .  A
O898        C903   1.275       .  A
C899       C1291   1.497       .  S
O900        C902   1.271       .  A
O901       Ni912   1.916       .  S
C902        O908   1.275       .  A
C902       C1305   1.498       .  S
C903       C1249   1.514       .  S
H904        O905   0.968       .  S
O905       Ni913   1.912       .  S
O905       Ni907   1.896       .  S
O905       Ni912   1.895       .  S
O906       Ni907   1.935       .  S
Ni907       O911   1.902       .  S
Ni907       O909   1.931       .  S
O908       Ni913   1.937       .  S
C910        O911   1.267       .  A
C910       C1280   1.490       .  S
C915        C916   1.534       .  S
C915        C921   1.547       .  S
C915        C919   1.540       .  S
C915       C1322   1.561       .  S
C916        H923   1.086       .  S
C916        C917   1.370       .  D
C917        C918   1.549       .  S
C917       C1238   1.510       .  S
C918        C922   1.542       .  S
C918        C920   1.545       .  S
C918        H924   1.108       .  S
C919        H925   1.086       .  S
C919        C920   1.367       .  D
C920       C1308   1.502       .  S
C921        H926   1.081       .  S
C921        C922   1.368       .  D
C922       C1294   1.502       .  S
C927        C928   1.549       .  S
C927        C933   1.538       .  S
C927       C1252   1.569       .  S
C928        H935   1.079       .  S
C928       C1373   1.368       .  D
C929       C1372   1.364   1_545  D
C929       C1277   1.493       .  S
C930        C934   1.538   1_545  S
C930        C932   1.545   1_545  S
C930        H936   1.110       .  S
C931        H937   1.086       .  S
C931       C1376   1.370       .  D
C932       C1375   1.374       .  D
C932       C1263   1.508   1_565  S
C933        H938   1.086       .  S
C934       C1221   1.494   1_565  S
O939      Ni1389   1.922   1_545  S
O939        C960   1.269       .  A
O940       Ni963   1.902       .  S
O940        C949   1.265       .  A
O941       Ni945   1.896       .  S
O941      Ni1401   1.920       .  S
O941        H964   0.967       .  S
C942        O959   1.280       .  A
C942        O951   1.276       .  A
C942       C1196   1.494       .  S
O943      Ni1406   1.930       .  S
O943        C949   1.272       .  A
O944       Ni962   1.894       .  S
O944        C946   1.264       .  A
Ni945      O1383   1.921       .  S
Ni945       O948   1.927       .  S
Ni945       O950   1.913       .  S
C946       C1165   1.517       .  S
O947       Ni963   1.940       .  S
O947        C953   1.284       .  A
C949       C1182   1.474       .  S
O950        C952   1.269       .  A
C952        O958   1.271       .  A
C952       C1210   1.506       .  S
C953       C1151   1.488       .  S
H954        O955   0.966       .  S
O955       Ni957   1.908       .  S
O956       Ni957   1.960       .  S
Ni957       O961   1.914       .  S
Ni957       O959   1.929       .  S
Ni957      O1385   1.923   1_545  S
C960        O961   1.270       .  A
C960       C1137   1.500       .  S
Ni962      O1387   1.918   1_545  S
C965        C966   1.534       .  S
C965        C971   1.536       .  S
C965        C969   1.553       .  S
C965       C1154   1.560       .  S
C966        H973   1.084       .  S
C966        C967   1.374       .  D
C967        C968   1.549       .  S
C967       C1140   1.523       .  S
C968        C972   1.533       .  S
C968        C970   1.544       .  S
C968        H974   1.101       .  S
C969        H975   1.081       .  S
C969        C970   1.369       .  D
C970       C1168   1.500       .  S
C971        H976   1.086       .  S
C971        C972   1.360       .  D
C972       C1123   1.487       .  S
C977        C978   1.537       .  S
C977        C983   1.531       .  S
C977        C981   1.554       .  S
C977       C1193   1.559       .  S
C978        H985   1.086       .  S
C978        C979   1.370       .  D
C979        C980   1.553       .  S
C979       C1235   1.513       .  S
C980        C984   1.546       .  S
C980        C982   1.543       .  S
C980        H986   1.110       .  S
C981        H987   1.082       .  S
C981        C982   1.372       .  D
C982       C1207   1.511       .  S
C983        H988   1.086       .  S
C983        C984   1.357       .  D
C984       C1179   1.490       .  S
O989       Ni995   1.922       .  S
O989       C1010   1.267       .  A
O990      Ni1013   1.917       .  S
O990        C999   1.270       .  A
O991       Ni995   1.902       .  S
O991      Ni1013   1.913       .  S
O991      Ni1007   1.913       .  S
O991       H1014   0.966       .  S
C992       O1009   1.277       .  A
C992       O1001   1.278       .  A
C992       C1053   1.483       .  S
O993      Ni1012   1.934       .  S
O993        C999   1.272       .  A
O994      Ni1012   1.908       .  S
O994        C996   1.268       .  A
Ni995       O998   1.911       .  S
Ni995      O1000   1.897       .  S
C996       O1006   1.268       .  A
C996       C1109   1.498       .  S
O997      Ni1013   1.917       .  S
O997       C1003   1.275       .  A
O998       C1003   1.273       .  A
C999       C1070   1.512       .  S
O1000      C1002   1.267       .  A
O1001     Ni1012   1.934       .  S
C1002      O1008   1.277       .  A
C1002      C1039   1.518       .  S
C1003      C1539   1.481       .  S
H1004      O1005   0.967       .  S
O1005     Ni1013   1.908       .  S
O1005     Ni1007   1.901       .  S
O1005     Ni1012   1.908       .  S
O1006     Ni1007   1.923       .  S
Ni1007     O1011   1.904       .  S
Ni1007     O1009   1.919       .  S
O1008     Ni1013   1.943       .  S
C1010      O1011   1.264       .  A
C1010      C1081   1.471       .  S
C1015      C1016   1.542       .  S
C1015      C1021   1.540       .  S
C1015      C1056   1.555       .  S
C1016      H1023   1.085       .  S
C1016      C1017   1.367       .  D
C1017      C1224   1.496       .  S
C1018      C1020   1.545   1_455  S
C1018      H1024   1.104       .  S
C1019      H1025   1.082   1_455  S
C1019      C1464   1.358   1_455  D
C1020      C1463   1.360   1_655  D
C1020      C1042   1.496       .  S
C1021      H1026   1.086       .  S
C1021      C1466   1.375       .  D
C1022      C1465   1.376       .  D
C1022      C1067   1.526       .  S
C1027      C1028   1.536       .  S
C1027      C1033   1.533       .  S
C1027      C1031   1.551       .  S
C1027      C1098   1.558       .  S
C1028      H1035   1.086       .  S
C1028      C1029   1.364       .  D
C1029      C1030   1.542       .  S
C1029      C1084   1.489       .  S
C1030      C1034   1.538       .  S
C1030      C1032   1.538       .  S
C1030      H1036   1.109       .  S
C1031      H1037   1.083       .  S
C1031      C1032   1.370       .  D
C1032      C1112   1.503       .  S
C1033      H1038   1.086       .  S
C1033      C1034   1.366       .  D
C1034      C1126   1.490       .  S
C1039      C1040   1.427       .  A
C1039      C1044   1.429       .  A
C1040      C1041   1.421       .  A
C1040      C1045   1.451       .  S
C1041      C1042   1.410       .  A
C1041      C1492   1.450       .  S
C1042      C1043   1.410       .  A
C1043      C1044   1.407       .  A
C1043      C1046   1.454       .  S
C1044      C1047   1.455       .  S
C1045      N1496   1.158       .  T
C1046      N1051   1.157   1_655  T
C1047      N1049   1.158       .  T
C1048      C1485   1.450       .  S
C1048      N1050   1.157       .  T
N1052      C1489   1.157       .  T
C1053      C1054   1.406       .  A
C1053      C1058   1.408       .  A
C1054      C1055   1.407       .  A
C1054      C1059   1.450       .  S
C1055      C1056   1.424       .  A
C1056      C1057   1.427       .  A
C1057      C1058   1.418       .  A
C1057      C1060   1.449       .  S
C1058      C1061   1.451       .  S
C1059      N1066   1.156       .  T
C1060      N1065   1.157       .  T
C1061      N1063   1.157       .  T
C1062      N1064   1.157       .  T
C1067      C1068   1.424       .  A
C1067      C1072   1.424       .  A
C1068      C1069   1.415       .  A
C1068      C1073   1.449       .  S
C1069      C1070   1.420       .  A
C1069      C1076   1.455       .  S
C1070      C1071   1.418       .  A
C1071      C1072   1.417       .  A
C1071      C1074   1.452       .  S
C1072      C1519   1.451       .  S
C1074      N1523   1.158       .  T
C1075      C1516   1.452   1_545  S
C1075      N1077   1.157       .  T
C1076      N1078   1.158       .  T
N1079      C1518   1.158   1_545  T
C1081      C1082   1.410       .  A
C1081      C1086   1.406       .  A
C1082      C1083   1.411       .  A
C1082      C1087   1.451       .  S
C1083      C1084   1.414       .  A
C1083      C1090   1.449       .  S
C1084      C1085   1.419       .  A
C1085      C1086   1.406       .  A
C1085      C1088   1.452       .  S
C1086      C1089   1.452       .  S
C1087      N1094   1.157       .  T
C1088      N1093   1.157       .  T
C1089      N1091   1.157       .  T
C1090      N1092   1.157       .  T
C1095      C1447   1.504       .  S
C1095      C1096   1.414   1_565  A
C1095      C1100   1.417   1_565  A
C1096      C1097   1.418       .  A
C1096      C1101   1.453   1_545  S
C1097      C1098   1.428       .  A
C1097      C1104   1.450       .  S
C1098      C1099   1.420       .  A
C1099      C1100   1.410       .  A
C1099      C1102   1.449       .  S
C1100      C1547   1.450       .  S
C1101      N1108   1.157       .  T
C1102      N1107   1.156       .  T
C1103      C1544   1.453       .  S
C1103      N1105   1.156       .  T
C1104      N1106   1.157       .  T
C1109      C1110   1.419       .  A
C1109      C1114   1.415       .  A
C1110      C1115   1.452       .  S
C1111      C1112   1.414   1_455  A
C1111      C1118   1.451       .  S
C1112      C1113   1.415       .  A
C1113      C1116   1.447       .  S
C1114      C1117   1.452       .  S
C1115      N1122   1.157       .  T
C1116      N1121   1.157       .  T
C1117      N1119   1.157       .  T
C1118      N1120   1.157       .  T
C1123      C1124   1.411       .  A
C1123      C1128   1.411       .  A
C1124      C1125   1.410       .  A
C1124      C1129   1.451       .  S
C1125      C1126   1.414       .  A
C1125      C1132   1.450       .  S
C1126      C1127   1.413       .  A
C1127      C1128   1.409       .  A
C1127      C1130   1.447       .  S
C1128      C1131   1.452       .  S
C1129      N1136   1.157       .  T
C1130      N1135   1.156       .  T
C1131      N1133   1.157   1_655  T
C1132      N1134   1.156       .  T
C1137      C1138   1.417       .  A
C1137      C1142   1.413       .  A
C1138      C1139   1.413       .  A
C1138      C1143   1.456       .  S
C1139      C1140   1.426       .  A
C1139      C1146   1.449       .  S
C1140      C1141   1.425       .  A
C1141      C1142   1.412       .  A
C1141      C1144   1.452       .  S
C1142      C1145   1.452       .  S
C1143      N1150   1.158   1_545  T
C1144      N1149   1.157       .  T
C1145      N1147   1.158       .  T
C1146      N1148   1.158       .  T
C1151      C1152   1.408       .  A
C1151      C1156   1.405       .  A
C1152      C1153   1.411       .  A
C1153      C1154   1.422       .  A
C1153      C1160   1.450       .  S
C1154      C1155   1.435       .  A
C1155      C1156   1.418       .  A
C1155      C1158   1.451       .  S
C1156      C1159   1.452       .  S
C1157      N1164   1.155       .  T
C1158      N1163   1.158       .  T
C1159      N1161   1.157       .  T
C1160      N1162   1.158       .  T
C1165      C1166   1.428       .  A
C1165      C1170   1.421       .  A
C1166      C1167   1.409       .  A
C1166      C1171   1.454       .  S
C1167      C1168   1.409       .  A
C1167      C1174   1.453       .  S
C1168      C1169   1.413       .  A
C1169      C1170   1.424       .  A
C1169      C1172   1.448       .  S
C1170      C1173   1.449       .  S
C1171      N1178   1.158       .  T
C1172      N1177   1.157       .  T
C1173      N1175   1.158   1_655  T
C1174      N1176   1.157       .  T
C1179      C1180   1.411       .  A
C1179      C1184   1.421       .  A
C1180      C1181   1.412       .  A
C1180      C1185   1.450       .  S
C1181      C1182   1.411       .  A
C1181      C1188   1.450       .  S
C1182      C1183   1.406       .  A
C1183      C1184   1.407       .  A
C1183      C1186   1.453       .  S
C1184      C1187   1.452       .  S
C1185      N1192   1.157       .  T
C1186      N1635   1.157       .  T
C1187      N1189   1.157       .  T
C1188      N1190   1.157       .  T
N1191      C1630   1.157       .  T
C1193      C1194   1.432       .  A
C1193      C1198   1.420       .  A
C1194      C1195   1.416       .  A
C1194      C1199   1.451       .  S
C1195      C1196   1.408       .  A
C1195      C1202   1.452       .  S
C1196      C1197   1.413       .  A
C1197      C1198   1.412       .  A
C1197      C1200   1.449       .  S
C1198      C1201   1.449       .  S
C1199      N1206   1.157       .  T
C1201      N1203   1.157       .  T
C1202      N1204   1.157       .  T
C1207      C1208   1.416       .  A
C1207      C1212   1.417       .  A
C1208      C1209   1.415       .  A
C1208      C1213   1.452       .  S
C1209      C1210   1.420       .  A
C1209      C1216   1.450       .  S
C1210      C1211   1.417       .  A
C1211      C1212   1.418       .  A
C1211      C1214   1.453       .  S
C1212      C1215   1.446       .  S
C1213      N1220   1.157       .  T
C1214      N1663   1.157       .  T
C1215      N1217   1.157       .  T
C1216      N1218   1.157       .  T
N1219      C1658   1.158       .  T
C1221      C1666   1.409   1_545  A
C1221      C1226   1.413       .  A
C1222      C1665   1.415       .  A
C1222      C1223   1.410   1_556  A
C1222      C1227   1.446       .  S
C1223      C1668   1.407       .  A
C1224      C1667   1.411       .  A
C1224      C1225   1.417       .  A
C1225      C1226   1.417   1_554  A
C1225      C1228   1.451       .  S
C1226      C1229   1.448       .  S
C1228      N1233   1.157       .  T
C1229      N1231   1.157       .  T
C1230      N1232   1.157       .  T
C1235      C1236   1.414       .  A
C1235      C1240   1.421       .  A
C1236      C1237   1.413       .  A
C1236      C1241   1.447       .  S
C1237      C1238   1.414       .  A
C1237      C1244   1.448       .  S
C1238      C1239   1.414       .  A
C1239      C1240   1.420       .  A
C1239      C1242   1.449       .  S
C1240      C1243   1.448       .  S
C1241      N1248   1.156       .  T
C1242      N1247   1.157       .  T
C1243      N1245   1.156       .  T
C1244      N1246   1.155       .  T
C1249      C1250   1.414       .  A
C1249      C1254   1.417       .  A
C1250      C1251   1.420       .  A
C1250      C1255   1.454       .  S
C1251      C1252   1.433       .  A
C1251      C1258   1.446       .  S
C1252      C1253   1.428       .  A
C1253      C1254   1.414       .  A
C1254      C1257   1.454       .  S
C1255      N1262   1.158       .  T
C1256      N1261   1.156       .  T
C1258      N1260   1.157       .  T
C1263      C1264   1.421       .  A
C1263      C1268   1.421       .  A
C1264      C1265   1.410       .  A
C1264      C1269   1.454   1_545  S
C1265      C1266   1.412       .  A
C1265      C1272   1.449       .  S
C1266      C1267   1.412       .  A
C1267      C1268   1.420       .  A
C1267      C1270   1.450       .  S
C1268      C1271   1.449       .  S
C1269      N1276   1.158       .  T
C1270      N1275   1.157       .  T
C1271      N1273   1.157       .  T
C1272      N1274   1.156       .  T
C1277      C1278   1.412       .  A
C1277      C1282   1.416       .  A
C1278      C1279   1.410       .  A
C1279      C1280   1.417       .  A
C1279      C1286   1.454       .  S
C1280      C1281   1.415       .  A
C1281      C1282   1.410       .  A
C1281      C1284   1.452       .  S
C1282      C1729   1.453   1_545  S
C1283      N1290   1.156       .  T
C1284      N1733   1.158       .  T
C1285      C1726   1.452       .  S
C1285      N1287   1.157       .  T
C1286      N1288   1.158   1_655  T
N1289      C1728   1.157       .  T
C1291      C1292   1.417       .  A
C1291      C1296   1.417       .  A
C1292      C1293   1.412       .  A
C1292      C1297   1.455       .  S
C1293      C1294   1.414       .  A
C1293      C1300   1.446       .  S
C1294      C1295   1.416       .  A
C1295      C1296   1.414       .  A
C1295      C1298   1.452       .  S
C1296      C1299   1.452       .  S
C1297      N1304   1.158       .  T
C1298      N1303   1.157       .  T
C1299      N1301   1.158       .  T
C1300      N1302   1.156       .  T
C1305      C1310   1.415       .  A
C1306      C1307   1.410       .  A
C1306      C1311   1.450       .  S
C1307      C1308   1.419       .  A
C1307      C1314   1.454       .  S
C1308      C1309   1.416       .  A
C1309      C1312   1.450       .  S
C1310      C1313   1.449       .  S
C1311      N1318   1.156       .  T
C1312      N1317   1.157       .  T
C1313      N1315   1.157       .  T
C1314      N1316   1.158       .  T
C1319      C1764   1.421       .  A
C1319      C1768   1.416       .  A
C1320      C1763   1.420       .  A
C1320      C1321   1.411       .  A
C1320      C1769   1.455       .  S
C1321      C1322   1.425       .  A
C1321      C1328   1.450       .  S
C1322      C1323   1.427       .  A
C1323      C1324   1.417       .  A
C1323      C1326   1.447       .  S
C1324      C1763   1.417       .  A
C1324      C1327   1.453       .  S
C1325      C1764   1.455       .  S
C1325      N1332   1.158       .  T
C1326      N1331   1.157       .  T
C1327      N1773   1.158       .  T
C1328      N1330   1.157       .  T
N1329      C1771   1.158       .  T
O1333     Ni1339   1.923       .  S
O1333      C1354   1.270       .  A
O1334     Ni1357   1.907       .  S
O1334      C1343   1.268       .  A
O1335     Ni1339   1.903       .  S
O1335     Ni1357   1.908       .  S
O1335     Ni1351   1.914       .  S
O1335      H1358   0.966       .  S
C1336      O1353   1.274       .  A
C1336      O1345   1.271       .  A
C1336      C1763   1.512       .  S
O1337     Ni1356   1.917       .  S
O1337      C1343   1.269       .  A
O1338     Ni1356   1.901       .  S
O1338      C1340   1.269       .  A
Ni1339     O1342   1.915       .  S
Ni1339     O1344   1.912       .  S
C1340      O1350   1.275       .  A
C1340      C1710   1.496       .  S
O1341     Ni1357   1.933       .  S
O1341      C1347   1.279       .  A
O1342      C1347   1.273       .  A
C1343      C1735   1.489       .  S
O1344      C1346   1.271       .  A
O1345     Ni1356   1.915       .  S
C1346      O1352   1.273       .  A
C1346      C1749   1.498       .  S
C1347      C1693   1.517       .  S
H1348      O1349   0.970       .  S
O1349     Ni1357   1.920       .  S
O1349     Ni1351   1.915       .  S
O1349     Ni1356   1.906       .  S
O1350     Ni1351   1.945       .  S
Ni1351     O1355   1.916       .  S
Ni1351     O1353   1.919       .  S
O1352     Ni1357   1.934       .  S
C1354      O1355   1.269       .  A
C1354      C1724   1.502       .  S
C1359      C1360   1.537       .  S
C1359      C1365   1.547       .  S
C1359      C1363   1.540       .  S
C1359      C1766   1.562       .  S
C1360      H1367   1.086       .  S
C1360      C1361   1.371       .  D
C1361      C1362   1.544       .  S
C1361      C1682   1.506       .  S
C1362      C1366   1.540       .  S
C1362      C1364   1.546       .  S
C1362      H1368   1.110       .  S
C1363      H1369   1.086       .  S
C1363      C1364   1.367       .  D
C1364      C1752   1.501       .  S
C1365      H1370   1.080       .  S
C1365      C1366   1.366       .  D
C1366      C1738   1.497       .  S
C1371      C1372   1.547       .  S
C1371      C1377   1.538       .  S
C1371      C1696   1.566       .  S
C1372      H1379   1.080       .  S
C1373      C1721   1.508       .  S
C1374      C1378   1.541       .  S
C1374      C1376   1.547       .  S
C1374      H1380   1.110       .  S
C1375      H1381   1.085       .  S
C1376      C1707   1.499       .  S
C1377      H1382   1.086       .  S
C1378      C1665   1.497       .  S
O1383      C1404   1.269       .  A
O1384     Ni1407   1.897       .  S
O1384      C1393   1.263       .  A
O1385     Ni1389   1.907       .  S
O1385      H1408   0.967       .  S
C1386      O1403   1.279       .  A
C1386      O1395   1.277       .  A
C1386      C1640   1.491       .  S
O1387      C1393   1.268       .  A
O1388     Ni1406   1.904       .  S
O1388      C1390   1.269       .  A
Ni1389     O1392   1.929       .  S
Ni1389     O1394   1.911       .  S
C1390      C1609   1.519       .  S
O1391     Ni1407   1.940       .  S
O1391      C1397   1.282       .  A
C1393      C1626   1.465       .  S
O1394      C1396   1.268       .  A
C1396      O1402   1.268       .  A
C1396      C1654   1.496       .  S
C1397      C1595   1.492       .  S
H1398      O1399   0.966       .  S
O1399     Ni1401   1.909       .  S
O1400     Ni1401   1.948       .  S
Ni1401     O1405   1.927       .  S
Ni1401     O1403   1.926       .  S
C1404      O1405   1.271       .  A
C1404      C1581   1.514       .  S
C1409      C1410   1.539       .  S
C1409      C1415   1.541       .  S
C1409      C1413   1.548       .  S
C1409      C1598   1.566       .  S
C1410      H1417   1.085       .  S
C1410      C1411   1.376       .  D
C1411      C1412   1.552       .  S
C1411      C1584   1.526       .  S
C1412      C1416   1.545       .  S
C1412      C1414   1.542       .  S
C1412      H1418   1.101       .  S
C1413      H1419   1.081       .  S
C1413      C1414   1.362       .  D
C1414      C1612   1.498       .  S
C1415      H1420   1.084       .  S
C1415      C1416   1.367       .  D
C1416      C1567   1.511       .  S
C1421      C1422   1.541       .  S
C1421      C1427   1.534       .  S
C1421      C1425   1.552       .  S
C1421      C1637   1.564       .  S
C1422      H1429   1.086       .  S
C1422      C1423   1.373       .  D
C1423      C1424   1.543       .  S
C1423      C1679   1.506       .  S
C1424      C1428   1.539       .  S
C1424      C1426   1.535       .  S
C1424      H1430   1.109       .  S
C1425      H1431   1.082       .  S
C1425      C1426   1.370       .  D
C1426      C1651   1.501       .  S
C1427      H1432   1.086       .  S
C1427      C1428   1.361       .  D
C1428      C1623   1.485       .  S
O1433     Ni1439   1.927       .  S
O1433      C1454   1.270       .  A
O1434     Ni1457   1.919       .  S
O1434      C1443   1.270       .  A
O1435     Ni1439   1.902       .  S
O1435     Ni1457   1.919       .  S
O1435     Ni1451   1.918       .  S
O1435      H1458   0.966       .  S
C1436      O1453   1.277       .  A
C1436      O1445   1.276       .  A
C1436      C1497   1.484       .  S
O1437     Ni1456   1.923       .  S
O1437      C1443   1.269       .  A
O1438     Ni1456   1.913       .  S
O1438      C1440   1.269       .  A
Ni1439     O1442   1.933       .  S
Ni1439     O1444   1.903       .  S
C1440      O1450   1.267       .  A
C1440      C1553   1.494       .  S
O1441     Ni1457   1.916       .  S
O1441      C1447   1.276       .  A
O1442      C1447   1.276       .  A
C1443      C1514   1.515       .  S
O1444      C1446   1.266       .  A
O1445     Ni1456   1.927       .  S
C1446      O1452   1.275       .  A
C1446      C1483   1.502       .  S
H1448      O1449   0.967       .  S
O1449     Ni1457   1.914       .  S
O1449     Ni1451   1.897       .  S
O1449     Ni1456   1.909       .  S
O1450     Ni1451   1.918       .  S
Ni1451     O1455   1.890       .  S
Ni1451     O1453   1.927       .  S
O1452     Ni1457   1.946       .  S
C1454      O1455   1.261       .  A
C1454      C1525   1.469       .  S
C1459      C1460   1.539       .  S
C1459      C1465   1.540       .  S
C1459      C1500   1.554       .  S
C1460      H1467   1.085       .  S
C1460      C1461   1.363       .  D
C1461      C1668   1.489       .  S
C1462      C1464   1.539   1_455  S
C1462      H1468   1.105   1_545  S
C1463      H1469   1.081   1_455  S
C1464      C1486   1.489   1_545  S
C1465      H1470   1.085       .  S
C1466      C1511   1.518   1_545  S
C1471      C1472   1.536       .  S
C1471      C1477   1.532       .  S
C1471      C1475   1.547       .  S
C1471      C1542   1.554       .  S
C1472      H1479   1.085       .  S
C1472      C1473   1.363       .  D
C1473      C1474   1.544       .  S
C1473      C1528   1.490       .  S
C1474      C1478   1.548       .  S
C1474      C1476   1.540       .  S
C1474      H1480   1.110       .  S
C1475      H1481   1.084       .  S
C1475      C1476   1.368       .  D
C1476      C1556   1.500       .  S
C1477      H1482   1.086       .  S
C1477      C1478   1.366       .  D
C1478      C1570   1.505       .  S
C1483      C1484   1.422       .  A
C1483      C1488   1.423       .  A
C1484      C1485   1.417       .  A
C1484      C1489   1.450       .  S
C1485      C1486   1.408       .  A
C1486      C1487   1.412       .  A
C1487      C1488   1.407       .  A
C1487      C1490   1.454       .  S
C1488      C1491   1.455       .  S
C1490      N1495   1.158   1_655  T
C1491      N1493   1.158       .  T
C1492      N1494   1.157       .  T
C1497      C1498   1.407       .  A
C1497      C1502   1.408       .  A
C1498      C1499   1.406       .  A
C1498      C1503   1.449       .  S
C1499      C1500   1.423       .  A
C1500      C1501   1.428       .  A
C1501      C1502   1.419       .  A
C1501      C1504   1.450       .  S
C1502      C1505   1.450       .  S
C1503      N1510   1.156       .  T
C1504      N1509   1.157       .  T
C1505      N1507   1.157       .  T
C1506      N1508   1.158       .  T
C1511      C1512   1.421       .  A
C1511      C1516   1.419       .  A
C1512      C1513   1.414       .  A
C1512      C1517   1.450       .  S
C1513      C1514   1.425       .  A
C1513      C1520   1.456       .  S
C1514      C1515   1.421       .  A
C1515      C1516   1.416       .  A
C1515      C1518   1.452       .  S
C1519      N1521   1.157       .  T
C1520      N1522   1.158       .  T
C1525      C1526   1.407       .  A
C1525      C1530   1.407       .  A
C1526      C1527   1.410       .  A
C1526      C1531   1.450       .  S
C1527      C1528   1.414       .  A
C1527      C1534   1.449       .  S
C1528      C1529   1.421       .  A
C1529      C1530   1.406       .  A
C1529      C1532   1.452       .  S
C1530      C1533   1.453       .  S
C1531      N1538   1.157       .  T
C1532      N1537   1.157       .  T
C1533      N1535   1.157       .  T
C1534      N1536   1.157       .  T
C1539      C1540   1.404       .  A
C1539      C1544   1.408       .  A
C1540      C1541   1.414       .  A
C1540      C1545   1.453       .  S
C1541      C1542   1.434       .  A
C1541      C1548   1.450       .  S
C1542      C1543   1.425       .  A
C1543      C1544   1.407       .  A
C1543      C1546   1.449       .  S
C1545      N1552   1.157       .  T
C1546      N1551   1.156       .  T
C1547      N1549   1.156       .  T
C1548      N1550   1.157       .  T
C1553      C1554   1.418       .  A
C1553      C1558   1.413       .  A
C1554      C1559   1.452       .  S
C1555      C1556   1.413   1_455  A
C1555      C1562   1.451       .  S
C1556      C1557   1.414       .  A
C1557      C1560   1.445       .  S
C1558      C1561   1.452       .  S
C1559      N1566   1.157       .  T
C1560      N1565   1.156       .  T
C1561      N1563   1.157       .  T
C1562      N1564   1.157       .  T
C1567      C1568   1.416       .  A
C1567      C1572   1.420       .  A
C1568      C1569   1.414       .  A
C1568      C1573   1.450       .  S
C1569      C1570   1.417       .  A
C1569      C1576   1.451       .  S
C1570      C1571   1.413       .  A
C1571      C1572   1.417       .  A
C1571      C1574   1.449       .  S
C1572      C1575   1.451       .  S
C1573      N1580   1.157       .  T
C1574      N1579   1.157       .  T
C1575      N1577   1.157       .  T
C1576      N1578   1.156       .  T
C1581      C1582   1.423       .  A
C1581      C1586   1.420       .  A
C1582      C1583   1.414       .  A
C1582      C1587   1.456       .  S
C1583      C1584   1.422       .  A
C1583      C1590   1.449       .  S
C1584      C1585   1.423       .  A
C1585      C1586   1.420       .  A
C1585      C1588   1.452       .  S
C1586      C1589   1.452       .  S
C1587      N1594   1.158       .  T
C1588      N1593   1.157       .  T
C1589      N1591   1.158       .  T
C1590      N1592   1.158       .  T
C1595      C1596   1.408       .  A
C1595      C1600   1.406       .  A
C1596      C1597   1.414       .  A
C1597      C1598   1.427       .  A
C1597      C1604   1.450       .  S
C1598      C1599   1.432       .  A
C1599      C1600   1.419       .  A
C1599      C1602   1.450       .  S
C1600      C1603   1.451       .  S
C1601      N1608   1.156       .  T
C1602      N1607   1.157       .  T
C1603      N1605   1.157       .  T
C1604      N1606   1.158       .  T
C1609      C1610   1.425       .  A
C1609      C1614   1.425       .  A
C1610      C1611   1.408       .  A
C1610      C1615   1.453       .  S
C1611      C1612   1.410       .  A
C1611      C1618   1.452       .  S
C1612      C1613   1.409       .  A
C1613      C1614   1.423       .  A
C1613      C1616   1.449       .  S
C1614      C1617   1.449       .  S
C1615      N1622   1.158       .  T
C1616      N1621   1.157       .  T
C1617      N1619   1.157   1_655  T
C1618      N1620   1.157       .  T
C1623      C1624   1.413       .  A
C1623      C1628   1.419       .  A
C1624      C1625   1.410       .  A
C1624      C1629   1.450       .  S
C1625      C1626   1.409       .  A
C1625      C1632   1.451       .  S
C1626      C1627   1.405       .  A
C1627      C1628   1.403       .  A
C1627      C1630   1.453       .  S
C1628      C1631   1.453       .  S
C1629      N1636   1.157       .  T
C1631      N1633   1.157       .  T
C1632      N1634   1.157       .  T
C1637      C1638   1.432       .  A
C1637      C1642   1.426       .  A
C1638      C1639   1.417       .  A
C1638      C1643   1.451       .  S
C1639      C1640   1.407       .  A
C1639      C1646   1.453       .  S
C1640      C1641   1.409       .  A
C1641      C1642   1.413       .  A
C1641      C1644   1.453       .  S
C1642      C1645   1.447       .  S
C1643      N1650   1.157       .  T
C1645      N1647   1.157       .  T
C1646      N1648   1.157       .  T
C1651      C1652   1.414       .  A
C1651      C1656   1.417       .  A
C1652      C1653   1.410       .  A
C1652      C1657   1.452       .  S
C1653      C1654   1.417       .  A
C1653      C1660   1.450       .  S
C1654      C1655   1.414       .  A
C1655      C1656   1.414       .  A
C1655      C1658   1.453       .  S
C1656      C1659   1.447       .  S
C1657      N1664   1.157       .  T
C1659      N1661   1.157       .  T
C1660      N1662   1.157       .  T
C1665      C1670   1.415       .  A
C1666      C1667   1.407   1_566  A
C1666      C1671   1.449       .  S
C1668      C1669   1.412       .  A
C1669      C1670   1.414   1_554  A
C1669      C1672   1.452       .  S
C1670      C1673   1.447       .  S
C1672      N1677   1.157       .  T
C1673      N1675   1.156       .  T
C1674      N1676   1.156       .  T
C1679      C1680   1.414       .  A
C1679      C1684   1.417       .  A
C1680      C1681   1.411       .  A
C1680      C1685   1.447       .  S
C1681      C1682   1.412       .  A
C1681      C1688   1.448       .  S
C1682      C1683   1.416       .  A
C1683      C1684   1.419       .  A
C1683      C1686   1.447       .  S
C1684      C1687   1.450       .  S
C1685      N1692   1.156       .  T
C1686      N1691   1.157       .  T
C1687      N1689   1.157       .  T
C1688      N1690   1.155       .  T
C1693      C1694   1.417       .  A
C1693      C1698   1.424       .  A
C1694      C1695   1.420       .  A
C1694      C1699   1.453       .  S
C1695      C1696   1.427       .  A
C1695      C1702   1.448       .  S
C1696      C1697   1.421       .  A
C1697      C1698   1.415       .  A
C1698      C1701   1.455       .  S
C1699      N1706   1.158       .  T
C1700      N1705   1.155       .  T
C1702      N1704   1.157       .  T
C1707      C1708   1.416       .  A
C1707      C1712   1.415       .  A
C1708      C1709   1.409       .  A
C1708      C1713   1.454       .  S
C1709      C1710   1.417       .  A
C1709      C1716   1.452       .  S
C1710      C1711   1.414       .  A
C1711      C1712   1.419       .  A
C1711      C1714   1.450       .  S
C1712      C1715   1.448       .  S
C1713      N1720   1.157       .  T
C1714      N1719   1.157       .  T
C1715      N1717   1.157       .  T
C1716      N1718   1.157       .  T
C1721      C1722   1.415       .  A
C1721      C1726   1.419       .  A
C1722      C1723   1.415       .  A
C1723      C1724   1.419       .  A
C1723      C1730   1.454   1_655  S
C1724      C1725   1.416       .  A
C1725      C1726   1.414       .  A
C1725      C1728   1.452       .  S
C1727      N1734   1.157       .  T
C1729      N1731   1.157       .  T
C1730      N1732   1.157       .  T
C1735      C1736   1.417       .  A
C1735      C1740   1.412       .  A
C1736      C1737   1.410       .  A
C1736      C1741   1.455       .  S
C1737      C1738   1.413       .  A
C1737      C1744   1.446       .  S
C1738      C1739   1.418       .  A
C1739      C1740   1.412       .  A
C1739      C1742   1.452       .  S
C1740      C1743   1.452       .  S
C1741      N1748   1.158       .  T
C1742      N1747   1.157       .  T
C1743      N1745   1.157       .  T
C1744      N1746   1.156       .  T
C1749      C1754   1.417       .  A
C1750      C1751   1.409       .  A
C1750      C1755   1.450       .  S
C1751      C1752   1.417       .  A
C1751      C1758   1.454       .  S
C1752      C1753   1.414       .  A
C1753      C1756   1.450       .  S
C1754      C1757   1.450       .  S
C1755      N1762   1.156       .  T
C1756      N1761   1.157       .  T
C1757      N1759   1.157       .  T
C1758      N1760   1.157       .  T
C1764      C1765   1.412   1_545  A
C1765      C1766   1.425       .  A
C1765      C1772   1.449       .  S
C1766      C1767   1.426       .  A
C1767      C1768   1.417   1_565  A
C1767      C1770   1.447       .  S
C1768      C1771   1.452       .  S
C1769      N1776   1.158       .  T
C1770      N1775   1.157       .  T
C1772      N1774   1.156       .  T
