geometry optimzed in LAMMPS
_audit_creation_date              2020-11-30 
_audit_creation_method            'lammps2cif' 
_symmetry_space_group_name_H-M    'P1' 
_symmetry_Int_Tables_number       1 
_symmetry_cell_setting            triclinic 
loop_ 
_symmetry_equiv_pos_as_xyz 
  x,y,z 
_cell_length_a                    61.438711 
_cell_length_b                    42.3710933831883 
_cell_length_c                    43.946869713536714 
_cell_angle_alpha                 90.27680337116217 
_cell_angle_beta                  89.8047880191209 
_cell_angle_gamma                 89.9120551336101 
loop_ 
_atom_site_label 
_atom_site_type_symbol 
_atom_site_fract_x 
_atom_site_fract_y 
_atom_site_fract_z 
_atom_site_charge 
Zn1        Zn  0.65885608  0.42248294  0.37654737     1.49700
Zn2        Zn  0.62394124  0.38414463  0.33850993     1.49400
Zn3        Zn  0.65901864  0.34674947  0.37689713     1.49100
Zn4        Zn  0.61982602  0.38458257  0.41129244     1.49500
O5          O  0.64040629  0.38453545  0.37625382    -1.83000
O6          O  0.65363881  0.45061036  0.33949874    -0.73700
O7          O  0.63244039  0.34804906  0.31139488    -0.73500
O8          O  0.69111905  0.35852782  0.37859526    -0.73000
O9          O  0.62855491  0.42350823  0.31453879    -0.73700
O10         O  0.69102321  0.41086157  0.37695950    -0.73300
O11         O  0.65482297  0.31916683  0.33938768    -0.73900
O12         O  0.62518418  0.34564197  0.43796082    -0.73300
O13         O  0.59196522  0.38021535  0.34648473    -0.74000
O14         O  0.65152627  0.32006685  0.41308060    -0.73400
O15         O  0.58783973  0.38359047  0.39663015    -0.73900
O16         O  0.62462888  0.42389146  0.43759314    -0.73800
O17         O  0.65194224  0.44818849  0.41413057    -0.73600
C18         C  0.64080231  0.44755227  0.31693127     0.78200
C19         C  0.64417663  0.32362436  0.31496167     0.78700
C20         C  0.70133651  0.38470951  0.37782647     0.77700
C21         C  0.63809160  0.32211465  0.43514469     0.78100
C22         C  0.57977898  0.38090805  0.36994658     0.79200
C23         C  0.63817081  0.44668134  0.43586531     0.78200
C24         C  0.59000200  0.13312259  0.12179586     0.87600
C25         C  0.59619697  0.16196957  0.14159076    -0.52700
C26         C  0.61752455  0.16292710  0.15053540     0.10500
C27         C  0.63071578  0.13408104  0.13938694     0.21500
C28         C  0.60653658  0.13326964  0.09568152    -0.53400
C29         C  0.62805256  0.13408551  0.10427421     0.10600
C30         C  0.59660777  0.10488219  0.14149336    -0.52900
C31         C  0.61777582  0.10539190  0.15072264     0.11200
H32         H  0.58457731  0.17898405  0.15014394     0.15700
H33         H  0.64765093  0.13345295  0.14762522     0.01400
H34         H  0.60155161  0.13317289  0.07199414     0.16000
H35         H  0.58527805  0.08667008  0.14859533     0.15800
C36         C  0.64647761  0.13454884  0.07999560    -0.01400
Zn37       Zn  0.84968886  0.14191934  0.16405397     1.49700
Zn38       Zn  0.88984664  0.17334164  0.12655247     1.49400
Zn39       Zn  0.88276411  0.09875047  0.12466200     1.49100
Zn40       Zn  0.84923252  0.14470971  0.09047362     1.49500
O41         O  0.86778832  0.13970077  0.12662932    -1.83000
O42         O  0.85917815  0.17982146  0.18987009    -0.73700
O43         O  0.92054513  0.15579381  0.12328497    -0.73500
O44         O  0.87502488  0.07166679  0.16095720    -0.73000
O45         O  0.88744226  0.19980615  0.16484191    -0.73700
O46         O  0.85310203  0.10158314  0.18928999    -0.73300
O47         O  0.91578073  0.10395080  0.12193071    -0.73900
O48         O  0.85293604  0.10771290  0.06090550    -0.73300
O49         O  0.88566511  0.20276865  0.09071685    -0.74000
O50         O  0.87375009  0.07466191  0.08710918    -0.73400
O51         O  0.85596237  0.18508492  0.06757352    -0.73900
O52         O  0.81769189  0.14685543  0.10306975    -0.73800
O53         O  0.81707727  0.14610927  0.15358885    -0.73600
C54         C  0.87440754  0.20021507  0.18749387     0.78200
C55         C  0.92831005  0.12793779  0.12119687     0.78700
C56         C  0.86322647  0.07563517  0.18460028     0.77700
C57         C  0.86265756  0.08124387  0.06354021     0.78100
C58         C  0.87140181  0.20498244  0.06983661     0.79200
C59         C  0.80715391  0.14749737  0.12809970     0.78200
C60         C  0.91952781  0.39186599  0.37191667     0.87600
C61         C  0.91398791  0.36279814  0.39106097    -0.52700
C62         C  0.89299665  0.36157707  0.40139095     0.10500
C63         C  0.87882641  0.38920000  0.39002978     0.21500
C64         C  0.90299895  0.39164991  0.34600159    -0.53400
C65         C  0.88149111  0.39018283  0.35459136     0.10600
C66         C  0.91236398  0.41988156  0.39224571    -0.52900
C67         C  0.89118639  0.41843444  0.40174992     0.11200
H68         H  0.92631504  0.34599598  0.39819588     0.15700
H69         H  0.86200947  0.38772993  0.39891823     0.01400
H70         H  0.90800013  0.39257536  0.32228998     0.16000
H71         H  0.92288217  0.43862921  0.40014099     0.15800
C72         C  0.86353357  0.38826962  0.32958387    -0.01400
Zn73       Zn  0.35046450  0.07464516  0.06115145     1.49700
Zn74       Zn  0.34948030  0.15063452  0.06158474     1.49400
Zn75       Zn  0.38519366  0.11372266  0.09861630     1.49100
Zn76       Zn  0.38898317  0.11281516  0.02611292     1.49500
O77         O  0.36846343  0.11307083  0.06131715    -1.83000
O78         O  0.31842476  0.08512479  0.05760445    -0.73700
O79         O  0.35319832  0.17798266  0.10032158    -0.73500
O80         O  0.38050869  0.07512876  0.12310466    -0.73000
O81         O  0.31758144  0.13751492  0.05720452    -0.73700
O82         O  0.35498263  0.04795068  0.09906625    -0.73300
O83         O  0.37796771  0.15052293  0.12534898    -0.73900
O84         O  0.42127497  0.11489481  0.04025909    -0.73300
O85         O  0.35704888  0.17746627  0.02522261    -0.74000
O86         O  0.41687841  0.11605547  0.09028103    -0.73400
O87         O  0.38240439  0.15096205  0.99908081    -0.73900
O88         O  0.38472049  0.07271446  0.00045146    -0.73800
O89         O  0.35830761  0.04759966  0.02498706    -0.73600
C90         C  0.30781578  0.11092121  0.05596965     0.78200
C91         C  0.36538888  0.17425065  0.12354450     0.78700
C92         C  0.36812174  0.05126051  0.12123415     0.77700
C93         C  0.42925315  0.11633059  0.06709713     0.78100
C94         C  0.36966866  0.17465494  0.00224750     0.79200
C95         C  0.37183440  0.04922009  0.00299450     0.78200
C96         C  0.41827306  0.36815934  0.31799991     0.87600
C97         C  0.41059757  0.39787118  0.30121416    -0.52700
C98         C  0.38991259  0.39607891  0.29010377     0.10500
C99         C  0.37816506  0.36516224  0.29790925     0.21500
C100        C  0.40097688  0.36383154  0.34297557    -0.53400
C101        C  0.37974876  0.36258538  0.33300512     0.10600
C102        C  0.41412401  0.34082994  0.29563474    -0.52900
C103        C  0.39324822  0.33913283  0.28521934     0.11200
H104        H  0.42117485  0.41783452  0.29671975     0.15700
H105        H  0.36158157  0.36436937  0.28827891     0.01400
H106        H  0.40460345  0.36308761  0.36699638     0.16000
H107        H  0.42675056  0.32451552  0.28823694     0.15800
C108        C  0.36080905  0.36165251  0.35652734    -0.01400
Zn109      Zn  0.15892291  0.36216336  0.26678440     1.49700
Zn110      Zn  0.12328879  0.40429887  0.30251515     1.49400
Zn111      Zn  0.11896351  0.32891950  0.30269720     1.49100
Zn112      Zn  0.15691784  0.36272622  0.34006794     1.49500
O113        O  0.13954830  0.36442649  0.30278696    -1.83000
O114        O  0.15645441  0.40242215  0.24147393    -0.73700
O115        O  0.09069379  0.39686925  0.30508485    -0.73500
O116        O  0.12247970  0.30283342  0.26400822    -0.73000
O117        O  0.13113190  0.43039622  0.26572064    -0.73700
O118        O  0.15093336  0.32410825  0.24041781    -0.73300
O119        O  0.08770421  0.34473212  0.30731497    -0.73900
O120        O  0.14917439  0.32516185  0.36576122    -0.73300
O121        O  0.13048301  0.43097170  0.33923315    -0.74000
O122        O  0.12440855  0.29968554  0.33848699    -0.73400
O123        O  0.15292479  0.40150744  0.36637594    -0.73900
O124        O  0.18865580  0.35928086  0.32975570    -0.73800
O125        O  0.19083602  0.35793872  0.27937048    -0.73600
C126        C  0.14482428  0.42731288  0.24401959     0.78200
C127        C  0.07906576  0.37216555  0.30809534     0.78700
C128        C  0.13611738  0.30303167  0.24201384     0.77700
C129        C  0.13635957  0.30190516  0.36206837     0.78100
C130        C  0.14203546  0.42680471  0.36285924     0.79200
C131        C  0.19993697  0.35753695  0.30542621     0.78200
C132        C  0.08853930  0.11258545  0.06304172     0.87600
C133        C  0.09423293  0.08460585  0.04203287    -0.52700
C134        C  0.11465442  0.08581370  0.02951517     0.10500
C135        C  0.12786809  0.11501115  0.03967355     0.21500
C136        C  0.10683983  0.11237762  0.08672875    -0.53400
C137        C  0.12767387  0.11367464  0.07520829     0.10600
C138        C  0.09302950  0.14200841  0.04396262    -0.52900
C139        C  0.11314905  0.14304035  0.03068478     0.11200
H140        H  0.08269669  0.06605462  0.03656760     0.15700
H141        H  0.14414100  0.11628826  0.02894895     0.01400
H142        H  0.10409819  0.11047275  0.11094878     0.16000
H143        H  0.08068232  0.15991035  0.04018647     0.15800
C144        C  0.14722298  0.11451864  0.09776890    -0.01400
C145        C  0.11783855  0.23115476  0.19608433    -0.27100
C146        C  0.13535498  0.22685294  0.17584969     0.06500
C147        C  0.15252547  0.24880935  0.17639662     0.26100
C148        C  0.15235465  0.27391859  0.19731035    -0.11600
C149        C  0.13515596  0.27768736  0.21830122    -0.25500
C150        C  0.11769458  0.25610653  0.21711465     0.36900
C151        C  0.13619146  0.19859442  0.15549926     0.06500
F152        F  0.16999126  0.24518237  0.15769237    -0.19300
H153        H  0.16607858  0.28992310  0.19761155     0.16300
F154        F  0.10049202  0.25878904  0.23641227    -0.23000
H155        H  0.10425466  0.21489347  0.19581315     0.18100
C156        C  0.13278323  0.16822953  0.16727221     0.26100
C157        C  0.13525295  0.14156960  0.14874576    -0.11600
C158        C  0.14209095  0.14407302  0.11805947    -0.25600
C159        C  0.14316369  0.17487432  0.10566512     0.37000
C160        C  0.14076182  0.20162744  0.12431993    -0.27200
F161        F  0.12783577  0.16409940  0.19711475    -0.19400
H162        H  0.13177170  0.11898951  0.15893286     0.16300
F163        F  0.14803295  0.17909258  0.07584141    -0.23100
H164        H  0.14271147  0.22481391  0.11442182     0.18200
C165        C  0.13801388  0.02987101  0.13097899    -0.27100
C166        C  0.15078161  0.03111901  0.15724124     0.06500
C167        C  0.16389483  0.05762054  0.16231017     0.26100
C168        C  0.16331201  0.08306967  0.14215725    -0.11600
C169        C  0.14872310  0.08376539  0.11724102    -0.25500
C170        C  0.13707482  0.05551125  0.11102603     0.36900
C171        C  0.14979867  0.00507520  0.17959721     0.06500
F172        F  0.17713821  0.05902220  0.18693759    -0.19300
H173        H  0.17349381  0.10324246  0.14708508     0.16300
F174        F  0.12525766  0.05160197  0.08542631    -0.23000
H175        H  0.12838928  0.00904631  0.12614552     0.18100
C176        C  0.13861605  0.50776390  0.20706835     0.26100
C177        C  0.13664270  0.48259233  0.22736127    -0.11600
C178        C  0.14735803  0.45367859  0.22186596    -0.25600
C179        C  0.16047731  0.45085520  0.19551871     0.37000
C180        C  0.15695621  0.97466759  0.17162534    -0.27200
F181        F  0.12786038  0.53513361  0.21299702    -0.19400
H182        H  0.12663284  0.48583254  0.24746743     0.16300
F183        F  0.17142809  0.42373396  0.18927937    -0.23100
H184        H  0.16384087  0.97029398  0.14927259     0.18200
C185        C  0.13877009  0.26068335  0.43865130    -0.27100
C186        C  0.13184286  0.23005683  0.43113719     0.06500
C187        C  0.12695324  0.22305580  0.40053112     0.26100
C188        C  0.12849019  0.24644274  0.37822570    -0.11600
C189        C  0.13522979  0.27714916  0.38580683    -0.25500
C190        C  0.14056956  0.28396792  0.41630440     0.36900
C191        C  0.12831497  0.20633965  0.45556303     0.06500
F192        F  0.12084777  0.19351267  0.39210448    -0.19300
H193        H  0.12452127  0.24045042  0.35490876     0.16300
F194        F  0.14670425  0.31346827  0.42483566    -0.23000
H195        H  0.14872334  0.26425474  0.95996642     0.18100
C196        C  0.14426643  0.19843784  0.97778406     0.26100
C197        C  0.13948206  0.17753739  0.00164682    -0.11600
C198        C  0.11833044  0.16553566  0.00553473    -0.25600
C199        C  0.10219848  0.17421031  0.98432196     0.37000
C200        C  0.10861360  0.18970906  0.45675839    -0.27200
F201        F  0.16492144  0.20927428  0.97462787    -0.19400
H202        H  0.15233327  0.17087326  0.01713136     0.16300
F203        F  0.08191783  0.16160166  0.98536989    -0.23100
H204        H  0.09628349  0.19334802  0.43956869     0.18200
C205        C  0.13228888  0.50368632  0.40585359    -0.27100
C206        C  0.14021168  0.99844741  0.43423254     0.06500
C207        C  0.15119081  0.96966375  0.43837188     0.26100
C208        C  0.15071210  0.44438042  0.41600185    -0.11600
C209        C  0.14232390  0.45142775  0.38705664    -0.25500
C210        C  0.13342275  0.48165939  0.38210309     0.36900
C211        C  0.13658271  0.02058296  0.46000322     0.06500
F212        F  0.16060580  0.96282122  0.46545415    -0.19300
H213        H  0.15774722  0.42143501  0.42053822     0.16300
F214        F  0.12549711  0.48992945  0.35446575    -0.23000
H215        H  0.12468561  0.52633361  0.40169772     0.18100
C216        C  0.13630553  0.05181770  0.95527068     0.26100
C217        C  0.13165010  0.07311813  0.97896357    -0.11600
C218        C  0.12214862  0.06256136  0.00621208    -0.25600
C219        C  0.11830199  0.03001370  0.00985441     0.37000
C220        C  0.12341539  0.00872859  0.98646558    -0.27200
F221        F  0.15112690  0.06423157  0.43190773    -0.19400
H222        H  0.13456718  0.09804962  0.97548825     0.16300
F223        F  0.10933707  0.01873259  0.03586579    -0.23100
H224        H  0.11992880  0.98388486  0.98951794     0.18200
C225        C  0.30019542  0.38492140  0.34154917    -0.27100
C226        C  0.29356789  0.36128946  0.32141674     0.06500
C227        C  0.30918942  0.34001377  0.31016263     0.26100
C228        C  0.33080641  0.34144325  0.32055267    -0.11600
C229        C  0.33768074  0.36455713  0.34186907    -0.25500
C230        C  0.32143581  0.38622262  0.35239366     0.36900
C231        C  0.26985461  0.35704285  0.31614982     0.06500
F232        F  0.30326267  0.31655574  0.29078188    -0.19300
H233        H  0.34208294  0.32339680  0.31295175     0.16300
F234        F  0.32452876  0.40629946  0.37605680    -0.23000
H235        H  0.28829971  0.40129676  0.35082617     0.18100
C236        C  0.25580280  0.35430891  0.34131508     0.26100
C237        C  0.23332199  0.35364883  0.33734046    -0.11600
C238        C  0.22408447  0.35565743  0.30818261    -0.25600
C239        C  0.23817582  0.35706956  0.28274583     0.37000
C240        C  0.26088721  0.35773479  0.28679536    -0.27200
F241        F  0.26386204  0.35265982  0.37000397    -0.19400
H242        H  0.22311667  0.35209583  0.35741829     0.16300
F243        F  0.23010437  0.35870155  0.25409210    -0.23100
H244        H  0.27143146  0.35984533  0.26711427     0.18200
C245        C  0.24876333  0.08295486  0.05878793    -0.27100
C246        C  0.23745531  0.11100628  0.05263179     0.06500
C247        C  0.24942013  0.13802616  0.04460737     0.26100
C248        C  0.27220294  0.13752745  0.04483327    -0.11600
C249        C  0.28363643  0.11004447  0.05288907    -0.25500
C250        C  0.27160237  0.08234253  0.05887787     0.36900
C251        C  0.21394024  0.11374913  0.06044286     0.06500
F252        F  0.23900101  0.16537277  0.03784857    -0.19300
H253        H  0.28089711  0.15901847  0.03946570     0.16300
F254        F  0.28176966  0.05507986  0.06658696    -0.23000
H255        H  0.23992176  0.06197862  0.06544254     0.18100
C256        C  0.19805262  0.09292273  0.04923935     0.26100
C257        C  0.17654169  0.09442089  0.06031840    -0.11600
C258        C  0.17011029  0.11702255  0.08247585    -0.25600
C259        C  0.18682005  0.13695387  0.09420302     0.37000
C260        C  0.20792794  0.13573276  0.08267740    -0.27200
F261        F  0.20340609  0.07074617  0.02811059    -0.19400
H262        H  0.16500910  0.07695755  0.05237337     0.16300
F263        F  0.18400743  0.15545433  0.11915627    -0.23100
H264        H  0.22016114  0.15081559  0.09287345     0.18200
C265        C  0.36982538  0.21743425  0.42440506    -0.27100
C266        C  0.36545763  0.24879944  0.93553792     0.06500
C267        C  0.36507118  0.25559517  0.96696367     0.26100
C268        C  0.36665050  0.23135647  0.98829404    -0.11600
C269        C  0.36928966  0.19985920  0.97898323    -0.25500
C270        C  0.37046685  0.19298133  0.94765731     0.36900
C271        C  0.36324544  0.27473351  0.41114525     0.06500
F272        F  0.36352383  0.28581082  0.97717111    -0.19300
H273        H  0.36597902  0.23727636  0.01229135     0.16300
F274        F  0.37265758  0.16273187  0.93779999    -0.23000
H275        H  0.37042847  0.21147976  0.40043191     0.18100
C276        C  0.37732880  0.27835185  0.38615585     0.26100
C277        C  0.37576592  0.30493725  0.36746366    -0.11600
C278        C  0.36070408  0.32953641  0.37381412    -0.25600
C279        C  0.34516735  0.32386901  0.39707075     0.37000
C280        C  0.34655268  0.29701735  0.41535918    -0.27200
F281        F  0.39341277  0.25708201  0.38059578    -0.19400
H282        H  0.38701460  0.30617319  0.34860107     0.16300
F283        F  0.32949997  0.34541400  0.40373765    -0.23100
H284        H  0.33485316  0.29415457  0.43362498     0.18200
C285        C  0.38561837  0.99792972  0.43172423    -0.27100
C286        C  0.37290605  0.47102435  0.93795827     0.06500
C287        C  0.35937373  0.47052520  0.96380394     0.26100
C288        C  0.35868075  0.99661966  0.98460788    -0.11600
C289        C  0.37229259  0.02292996  0.98025890    -0.25500
C290        C  0.38590075  0.02340311  0.95430422     0.36900
C291        C  0.37161749  0.44469112  0.41547388     0.06500
F292        F  0.34578476  0.44583936  0.96885506    -0.19300
H293        H  0.34789120  0.99540029  0.00410333     0.16300
F294        F  0.39927732  0.04821817  0.94889819    -0.23000
H295        H  0.39605845  0.99870173  0.41183589     0.18100
C296        C  0.36785439  0.44799525  0.38415247     0.26100
C297        C  0.36555292  0.42116995  0.36562120    -0.11600
C298        C  0.36582487  0.39028808  0.37799770    -0.25600
C299        C  0.37228273  0.38751996  0.40888863     0.37000
C300        C  0.37468283  0.41432425  0.42718298    -0.27200
F301        F  0.36515345  0.47700330  0.37174471    -0.19400
H302        H  0.36202939  0.42446265  0.34170836     0.16300
F303        F  0.37744891  0.35945997  0.42163977    -0.23100
H304        H  0.37896010  0.41131859  0.45089336     0.18200
C305        C  0.39000440  0.50350092  0.18812010    -0.27100
C306        C  0.37213673  0.48403343  0.19447323     0.06500
C307        C  0.35223972  0.98563446  0.17540511     0.26100
C308        C  0.35161566  0.00697405  0.15115644    -0.11600
C309        C  0.36922549  0.02730574  0.14559523    -0.25500
C310        C  0.38776438  0.02530179  0.16430094     0.36900
C311        C  0.37340389  0.46188113  0.22034732     0.06500
F312        F  0.33457646  0.96734334  0.18100370    -0.19300
H313        H  0.33712980  0.00816563  0.13723112     0.16300
F314        F  0.40546889  0.04374195  0.15931455    -0.23000
H315        H  0.40462403  0.50204645  0.20176746     0.18100
C316        C  0.36951067  0.42945893  0.21622535     0.26100
C317        C  0.37329241  0.40841582  0.24001439    -0.11600
C318        C  0.38155918  0.41921986  0.26791104    -0.25600
C319        C  0.38440828  0.45177214  0.27255122     0.37000
C320        C  0.38031369  0.47288456  0.24893839    -0.27200
F321        F  0.36364277  0.41783857  0.18861307    -0.19400
H322        H  0.37107585  0.38342796  0.23592249     0.16300
F323        F  0.39165218  0.46304247  0.29964763    -0.23100
H324        H  0.38202263  0.99793158  0.25240256     0.18200
C325        C  0.38659126  0.29711422  0.20948103    -0.27100
C326        C  0.37515878  0.26977513  0.21787819     0.06500
C327        C  0.36938788  0.26572784  0.24869551     0.26100
C328        C  0.37484595  0.28872394  0.27044985    -0.11600
C329        C  0.38647650  0.31574606  0.26195767    -0.25500
C330        C  0.39240863  0.31973504  0.23132642     0.36900
C331        C  0.37061242  0.24486053  0.19469651     0.06500
F332        F  0.35846866  0.23956189  0.25774244    -0.19300
H333        H  0.37041359  0.28512336  0.29405254     0.16300
F334        F  0.40409965  0.34532829  0.22263064    -0.23000
H335        H  0.39159107  0.30048806  0.18606431     0.18100
C336        C  0.36016615  0.25199264  0.16707648     0.26100
C337        C  0.35765893  0.22873173  0.14445720    -0.11600
C338        C  0.36575090  0.19799784  0.14876005    -0.25600
C339        C  0.37557157  0.19074716  0.17692357     0.37000
C340        C  0.37789671  0.21390451  0.19948628    -0.27200
F341        F  0.35248355  0.28152605  0.16191909    -0.19400
H342        H  0.34998269  0.23506797  0.12319474     0.16300
F343        F  0.38328740  0.16133615  0.18267092    -0.23100
H344        H  0.38607683  0.20784495  0.22046533     0.18200
C345        C  0.97166760  0.36333796  0.33149284    -0.27100
C346        C  0.98734340  0.38557995  0.34044292     0.06500
C347        C  0.98066861  0.41092704  0.35911678     0.26100
C348        C  0.95897226  0.41359524  0.36884857    -0.11600
C349        C  0.94323960  0.39090734  0.36049706    -0.25500
C350        C  0.95004857  0.36575431  0.34145473     0.36900
C351        C  0.01059065  0.38183975  0.33078002     0.06500
F352        F  0.99528999  0.43263187  0.36900719    -0.19300
H353        H  0.95504546  0.43331794  0.38339676     0.16300
F354        F  0.93573857  0.34312445  0.33263177    -0.23000
H355        H  0.97616551  0.34387071  0.31669513     0.18100
C356        C  0.02125346  0.35246524  0.33292679     0.26100
C357        C  0.04318700  0.34934997  0.32453142    -0.11600
C358        C  0.05520918  0.37542784  0.31411597    -0.25600
C359        C  0.04445407  0.40476778  0.31164437     0.37000
C360        C  0.02242901  0.40776480  0.31969548    -0.27200
F361        F  0.01076231  0.32695021  0.34437204    -0.19400
H362        H  0.05094515  0.32655697  0.32711611     0.16300
F363        F  0.05516818  0.43073281  0.30163073    -0.23100
H364        H  0.01460221  0.43052525  0.31726208     0.18200
C365        C  0.87246644  0.47341849  0.29660618    -0.27100
C366        C  0.85935306  0.47252373  0.27059175     0.06500
C367        C  0.84655722  0.44561959  0.26541995     0.26100
C368        C  0.84757327  0.41987323  0.28525298    -0.11600
C369        C  0.86208623  0.41924829  0.31025531    -0.25500
C370        C  0.87375407  0.44757087  0.31634958     0.36900
C371        C  0.85974558  0.49916498  0.24847449     0.06500
F372        F  0.83302258  0.44415843  0.24110750    -0.19300
H373        H  0.83759858  0.39948378  0.28020997     0.16300
F374        F  0.88618213  0.45136762  0.34142052    -0.23000
H375        H  0.88218540  0.49414679  0.30142407     0.18100
C376        C  0.85459565  0.03062986  0.25856726     0.26100
C377        C  0.85607717  0.05536987  0.23750434    -0.11600
C378        C  0.86110851  0.04927950  0.20676806    -0.25600
C379        C  0.86405204  0.01765885  0.19740854     0.37000
C380        C  0.86414768  0.49317401  0.21759674    -0.27200
F381        F  0.84997400  0.03746799  0.28809634    -0.19400
H382        H  0.85366257  0.07938941  0.24536769     0.16300
F383        F  0.86843708  0.01043785  0.16788812    -0.23100
H384        H  0.86683471  0.46920769  0.20973707     0.18200
C385        C  0.86317856  0.25473895  0.25505311    -0.27100
C386        C  0.88005122  0.27694520  0.25247572     0.06500
C387        C  0.89597623  0.27235051  0.22977579     0.26100
C388        C  0.89427944  0.24704729  0.20923544    -0.11600
C389        C  0.87685269  0.22550140  0.21101973    -0.25500
C390        C  0.86156695  0.22930450  0.23475126     0.36900
C391        C  0.87985794  0.30542375  0.27257052     0.06500
F392        F  0.91324458  0.29215964  0.22749082    -0.19300
H393        H  0.90656826  0.24456665  0.19165854     0.16300
F394        F  0.84462718  0.20906951  0.23796256    -0.23000
H395        H  0.85070008  0.25766966  0.27231404     0.18100
C396        C  0.88152405  0.33597502  0.26045560     0.26100
C397        C  0.87753558  0.36248843  0.27877438    -0.11600
C398        C  0.87071228  0.35945446  0.30945179    -0.25600
C399        C  0.87164048  0.32879049  0.32210534     0.37000
C400        C  0.87577528  0.30229389  0.30383377    -0.27200
F401        F  0.88572689  0.34037883  0.23043974    -0.19400
H402        H  0.87956544  0.38526648  0.26827649     0.16300
F403        F  0.86697889  0.32415691  0.35184572    -0.23100
H404        H  0.87502855  0.27907638  0.31399122     0.18200
C405        C  0.86286878  0.48622355  0.44242871    -0.27100
C406        C  0.87142549  0.48356192  0.47194673     0.06500
C407        C  0.88540388  0.45806907  0.47842727     0.26100
C408        C  0.89096583  0.43632874  0.45563730    -0.11600
C409        C  0.88292809  0.43968349  0.42599589    -0.25500
C410        C  0.86879035  0.46478889  0.41952939     0.36900
C411        C  0.86679031  0.50830690  0.49525737     0.06500
F412        F  0.89464767  0.45508046  0.50628290    -0.19300
H413        H  0.90216092  0.41733753  0.46085612     0.16300
F414        F  0.86166628  0.46977959  0.39083044    -0.23000
H415        H  0.85196759  0.50543975  0.43686565     0.18100
C416        C  0.86763938  0.04094992  0.48771627     0.26100
C417        C  0.86492453  0.06377100  0.51056480    -0.11600
C418        C  0.86233563  0.05481034  0.54102229    -0.25600
C419        C  0.86120686  0.02254512  0.54815766     0.37000
C420        C  0.86144272  0.49981950  0.52525375    -0.27200
F421        F  0.87208093  0.05074814  0.45900912    -0.19400
H422        H  0.86610809  0.08851063  0.50467732     0.16300
F423        F  0.85810601  0.01526138  0.07429953    -0.23100
H424        H  0.85948134  0.47523292  0.53128285     0.18200
C425        C  0.89473531  0.25803952  0.51099315    -0.27100
C426        C  0.87651962  0.27573657  0.50172250     0.06500
C427        C  0.85621295  0.26938373  0.51549364     0.26100
C428        C  0.85435931  0.24577664  0.53769404    -0.11600
C429        C  0.87275990  0.22880554  0.54721141    -0.25500
C430        C  0.89299307  0.23529509  0.53378093     0.36900
C431        C  0.87915195  0.30019302  0.47752029     0.06500
F432        F  0.83827825  0.28640269  0.50811392    -0.19300
H433        H  0.83871982  0.24147754  0.04705738     0.16300
F434        F  0.91097474  0.21870130  0.54185310    -0.23000
H435        H  0.91043227  0.26147881  0.50025408     0.18100
C436        C  0.89758588  0.31991032  0.47724813     0.26100
C437        C  0.90160656  0.33983302  0.45266874    -0.11600
C438        C  0.88714622  0.34145871  0.42800587    -0.25600
C439        C  0.86771676  0.32399693  0.42943831     0.37000
C440        C  0.86402517  0.30304032  0.45362493    -0.27200
F441        F  0.91179877  0.32005157  0.50083537    -0.19400
H442        H  0.91617237  0.35420729  0.45296909     0.16300
F443        F  0.85259254  0.32635704  0.40719340    -0.23100
H444        H  0.84961542  0.28838841  0.45313335     0.18200
C445        C  0.98340763  0.09176482  0.10033089    -0.27100
C446        C  0.99730011  0.11786711  0.10297494     0.06500
C447        C  0.98870354  0.14673672  0.11332836     0.26100
C448        C  0.96643444  0.14961390  0.11992530    -0.11600
C449        C  0.95227440  0.12366670  0.11672834    -0.25500
C450        C  0.96119464  0.09441387  0.10742911     0.36900
C451        C  0.02048731  0.11523720  0.09357491     0.06500
F452        F  0.00171230  0.17246768  0.11596017    -0.19300
H453        H  0.96021734  0.17240462  0.12709515     0.16300
F454        F  0.94841992  0.06852167  0.10421709    -0.23000
H455        H  0.98978513  0.06929883  0.09247726     0.18100
C456        C  0.03732929  0.11783387  0.11490229     0.26100
C457        C  0.05916601  0.11619314  0.10557797    -0.11600
C458        C  0.06481693  0.11218385  0.07456122    -0.25600
C459        C  0.04762033  0.10986918  0.05331087     0.37000
C460        C  0.02583680  0.11096918  0.06281628    -0.27200
F461        F  0.03264241  0.12204690  0.14485465    -0.19400
H462        H  0.07129502  0.11909640  0.12298773     0.16300
F463        F  0.05186626  0.10718487  0.02306933    -0.23100
H464        H  0.01305094  0.10926431  0.04597478     0.18200
C465        C  0.74975042  0.15756937  0.09749585    -0.27100
C466        C  0.73691888  0.14642682  0.12153418     0.06500
C467        C  0.74705784  0.13796987  0.14895389     0.26100
C468        C  0.76987593  0.13952032  0.15163458    -0.11600
C469        C  0.78288001  0.14930985  0.12691782    -0.25500
C470        C  0.77238056  0.15915438  0.10005669     0.36900
C471        C  0.71345555  0.14061660  0.11590292     0.06500
F472        F  0.73501584  0.12693326  0.17254870    -0.19300
H473        H  0.77740591  0.13187816  0.17259467     0.16300
F474        F  0.78396542  0.16988340  0.07588120    -0.23000
H475        H  0.74219000  0.16423389  0.07622520     0.18100
C476        C  0.69740591  0.16241751  0.12456981     0.26100
C477        C  0.67598406  0.15909560  0.11396647    -0.11600
C478        C  0.66971379  0.13374706  0.09465111    -0.25600
C479        C  0.68643674  0.11197277  0.08619809     0.37000
C480        C  0.70764028  0.11529806  0.09718682    -0.27200
F481        F  0.70270208  0.18792549  0.14178882    -0.19400
H482        H  0.66427096  0.17724317  0.11995314     0.16300
F483        F  0.68304108  0.09128476  0.56111244    -0.23100
H484        H  0.71967130  0.10116181  0.58479485     0.18200
C485        C  0.48343363  0.12955571  0.10681910    -0.27100
C486        C  0.49865256  0.12268849  0.08389711     0.06500
C487        C  0.49098878  0.11317244  0.05508403     0.26100
C488        C  0.46846468  0.11137615  0.04936852    -0.11600
C489        C  0.45322046  0.11858548  0.07239474    -0.25500
C490        C  0.46112867  0.12760815  0.10132544     0.36900
C491        C  0.52229330  0.12629654  0.09072167     0.06500
F492        F  0.50522667  0.10637898  0.03230068    -0.19300
H493        H  0.46296457  0.10418924  0.02700494     0.16300
F494        F  0.44736435  0.13511116  0.12450347    -0.23000
H495        H  0.48887953  0.13651567  0.12929246     0.18100
C496        C  0.52999386  0.15426846  0.10416458     0.26100
C497        C  0.55163148  0.15683800  0.11359627    -0.11600
C498        C  0.56634840  0.13139735  0.11033732    -0.25600
C499        C  0.55881058  0.10398249  0.09518129     0.37000
C500        C  0.53704362  0.10145022  0.08573342    -0.27200
F501        F  0.51652888  0.17942595  0.10805058    -0.19400
H502        H  0.55648380  0.17924887  0.12298014     0.16300
F503        F  0.57245035  0.07929973  0.08993563    -0.23100
H504        H  0.53156538  0.07968892  0.07527203     0.18200
C505        C  0.76058711  0.35716532  0.37744177    -0.27100
C506        C  0.77169667  0.38497641  0.36961697     0.06500
C507        C  0.75956751  0.41295035  0.36615498     0.26100
C508        C  0.73690285  0.41284071  0.36995297    -0.11600
C509        C  0.72565680  0.38482715  0.37685856    -0.25500
C510        C  0.73789380  0.35697119  0.38104402     0.36900
C511        C  0.79544163  0.38390085  0.36220861     0.06500
F512        F  0.76939594  0.44004815  0.35722230    -0.19300
H513        H  0.72806227  0.43462321  0.36632279     0.16300
F514        F  0.72799472  0.32933365  0.38811910    -0.23000
H515        H  0.76951440  0.33530887  0.38023527     0.18100
C516        C  0.81013049  0.40646672  0.37342980     0.26100
C517        C  0.83182116  0.40670842  0.36337238    -0.11600
C518        C  0.84005668  0.38387824  0.34279803    -0.25600
C519        C  0.82482811  0.36131460  0.33151397     0.37000
C520        C  0.80320160  0.36118178  0.34162281    -0.27200
F521        F  0.80351845  0.42856799  0.39393079    -0.19400
H522        H  0.84223168  0.42544928  0.37118757     0.16300
F523        F  0.82961167  0.34112106  0.30844270    -0.23100
H524        H  0.79206149  0.34417813  0.33181198     0.18200
C525        C  0.65052406  0.52345459  0.47756919    -0.27100
C526        C  0.63683891  0.02067032  0.50304968     0.06500
C527        C  0.62303717  0.49539480  0.50616437     0.26100
C528        C  0.62377786  0.47077259  0.48464125    -0.11600
C529        C  0.63787857  0.47228613  0.45928876    -0.25500
C530        C  0.65145478  0.49894647  0.45628456     0.36900
C531        C  0.63559921  0.04845387  0.52372132     0.06500
F532        F  0.60745472  0.99413742  0.52815800    -0.19300
H533        H  0.61314478  0.45066752  0.48768447     0.16300
F534        F  0.66548898  0.50181264  0.43254069    -0.23000
H535        H  0.66093205  0.54382137  0.47446260     0.18100
C536        C  0.64034605  0.04638953  0.55486303     0.26100
C537        C  0.64237319  0.07397964  0.57248796    -0.11600
C538        C  0.64061638  0.10435457  0.55925735    -0.25600
C539        C  0.63290180  0.10557355  0.52880533     0.37000
C540        C  0.63112072  0.07808970  0.51132979    -0.27200
F541        F  0.64509239  0.51883325  0.56684727    -0.19400
H542        H  0.64656527  0.07175448  0.09580476     0.16300
F543        F  0.62611244  0.13273518  0.51571027    -0.23100
H544        H  0.62629818  0.07996218  0.48770940     0.18200
C545        C  0.64140375  0.24019639  0.46886242    -0.27100
C546        C  0.63989606  0.24629172  0.50026956     0.06500
C547        C  0.63693335  0.27777578  0.51010624     0.26100
C548        C  0.63548791  0.30234546  0.48885904    -0.11600
C549        C  0.63762163  0.29612240  0.45757276    -0.25500
C550        C  0.64047858  0.26473188  0.44778308     0.36900
C551        C  0.64201543  0.21958937  0.52213048     0.06500
F552        F  0.63650239  0.28506267  0.54020370    -0.19300
H553        H  0.63358543  0.32639549  0.49691552     0.16300
F554        F  0.64215466  0.25768958  0.41769048    -0.23000
H555        H  0.64338055  0.21624996  0.46055150     0.18100
C556        C  0.62761336  0.21589742  0.54676133     0.26100
C557        C  0.62937139  0.18982417  0.56607699    -0.11600
C558        C  0.64455194  0.16526151  0.56027394    -0.25600
C559        C  0.65952775  0.17001267  0.53608976     0.37000
C560        C  0.65823119  0.19667099  0.51755328    -0.27200
F561        F  0.61109964  0.23667985  0.55147892    -0.19400
H562        H  0.61834095  0.18917329  0.58519063     0.16300
F563        F  0.67685492  0.14832357  0.03133489    -0.23100
H564        H  0.66979243  0.19907969  0.49905048     0.18200
C565        C  0.63371565  0.02833035  0.18760504    -0.27100
C566        C  0.63741481  0.03793770  0.21787408     0.06500
C567        C  0.63675118  0.07037885  0.22491626     0.26100
C568        C  0.63121360  0.09231591  0.20253827    -0.11600
C569        C  0.62638568  0.08241743  0.17283869    -0.25500
C570        C  0.62797002  0.05029909  0.16535548     0.36900
C571        C  0.63942373  0.01398025  0.24239357     0.06500
F572        F  0.63984593  0.08071802  0.25385792    -0.19300
H573        H  0.62934656  0.11682629  0.20894154     0.16300
F574        F  0.62326250  0.04010178  0.13681175    -0.23000
H575        H  0.63262178  0.50383253  0.18365671     0.18100
C576        C  0.62226161  0.49116075  0.24655788     0.26100
C577        C  0.62355296  0.46948241  0.27025063    -0.11600
C578        C  0.63983526  0.47183446  0.29257782    -0.25600
C579        C  0.65489125  0.49685342  0.29062345     0.37000
C580        C  0.65538582  0.01664375  0.26516316    -0.27200
F581        F  0.60571075  0.48842512  0.22632873    -0.19400
H582        H  0.61153875  0.45083015  0.27114423     0.16300
F583        F  0.67090079  0.50023830  0.31158437    -0.23100
H584        H  0.66722934  0.03552354  0.26430647     0.18200
C585        C  0.62272372  0.24083344  0.19340462    -0.27100
C586        C  0.63778520  0.23331350  0.21626436     0.06500
C587        C  0.64796468  0.20351177  0.21522043     0.26100
C588        C  0.64222122  0.18134399  0.19287282    -0.11600
C589        C  0.62610272  0.18819484  0.17120710    -0.25500
C590        C  0.61729559  0.21895523  0.17080943     0.36900
C591        C  0.64196784  0.25622045  0.24150642     0.06500
F592        F  0.66341544  0.19567315  0.23586105    -0.19300
H593        H  0.65007184  0.15854238  0.19327295     0.16300
F594        F  0.60346604  0.22816388  0.14851564    -0.23000
H595        H  0.61458097  0.26350510  0.19338142     0.18100
C596        C  0.64374657  0.28881610  0.23572947     0.26100
C597        C  0.64491708  0.31042452  0.25977920    -0.11600
C598        C  0.64505118  0.30011392  0.29006015    -0.25600
C599        C  0.64450782  0.26756731  0.29598539     0.37000
C600        C  0.64267265  0.24590318  0.27192689    -0.27200
F601        F  0.64430769  0.29992030  0.20682163    -0.19400
H602        H  0.64563502  0.33540541  0.25472006     0.16300
F603        F  0.64440941  0.25681097  0.32503546    -0.23100
H604        H  0.64094692  0.22110882  0.27723344     0.18200
C605        C  0.51820456  0.39096115  0.37824184    -0.27100
C606        C  0.51067880  0.37474273  0.35226850     0.06500
C607        C  0.52599957  0.35961574  0.33331521     0.29300
C608        C  0.54823101  0.36151885  0.33964501    -0.11600
C609        C  0.55587289  0.37810085  0.36525689    -0.25500
C610        C  0.54057855  0.39255813  0.38480095     0.36900
C611        C  0.48704427  0.37396131  0.34446090     0.06500
F612        F  0.51946478  0.34252968  0.30879049    -0.19300
H613        H  0.55956723  0.34979502  0.32439312     0.16300
F614        F  0.54725323  0.40930923  0.40944713    -0.23000
H615        H  0.50678129  0.40304369  0.39308475     0.18100
C616        C  0.47121252  0.36544708  0.36604656     0.26100
C617        C  0.44918852  0.36354069  0.35790952    -0.11600
C618        C  0.44224967  0.37017101  0.32794411    -0.25600
C619        C  0.45837246  0.37830553  0.30636156     0.37000
C620        C  0.48028506  0.38058523  0.31466601    -0.27200
F621        F  0.47710294  0.35766769  0.39479511    -0.19400
H622        H  0.43802179  0.35587231  0.37528524     0.16300
F623        F  0.45297226  0.38408493  0.27697645    -0.23100
H624        H  0.49208990  0.38742086  0.29757669     0.18200
Zn625      Zn  0.65859727  0.42121926  0.87574482     1.49700
Zn626      Zn  0.62417058  0.38119577  0.83838166     1.49400
Zn627      Zn  0.65963280  0.34543327  0.87696007     1.49100
Zn628      Zn  0.62025577  0.38323015  0.91133038     1.49500
O629        O  0.64064544  0.38282731  0.87607104    -1.83000
O630        O  0.65331686  0.44800892  0.83793229    -0.73700
O631        O  0.63263577  0.34446222  0.81204679    -0.73500
O632        O  0.69149408  0.35800335  0.87851333    -0.73000
O633        O  0.62862130  0.41981146  0.81331686    -0.73700
O634        O  0.69075880  0.41033741  0.87659215    -0.73300
O635        O  0.65558999  0.31671996  0.84015364    -0.73900
O636        O  0.62629143  0.34483400  0.93846171    -0.73300
O637        O  0.59231200  0.37716119  0.84666695    -0.74000
O638        O  0.65272027  0.31943796  0.91356025    -0.73400
O639        O  0.58817532  0.38124653  0.89678297    -0.73900
O640        O  0.62484178  0.42312452  0.93717109    -0.73800
O641        O  0.65156122  0.44777945  0.91279881    -0.73600
C642        C  0.64070728  0.44406131  0.81524378     0.78200
C643        C  0.64463963  0.32036641  0.81587624     0.78700
C644        C  0.70135079  0.38445864  0.87773204     0.77700
C645        C  0.63945754  0.32158711  0.93578454     0.78100
C646        C  0.58013242  0.37797808  0.87012381     0.79200
C647        C  0.63806286  0.44626750  0.93486413     0.78200
C648        C  0.58945369  0.13206413  0.62220320     0.87600
C649        C  0.59611750  0.15968217  0.64322390    -0.52700
C650        C  0.61753483  0.15997973  0.65160513     0.10500
C651        C  0.63038094  0.13151748  0.63893238     0.21500
C652        C  0.60571599  0.13325478  0.59576676    -0.53400
C653        C  0.62733345  0.13340406  0.60391837     0.10600
C654        C  0.59601407  0.10269429  0.64021557    -0.52900
C655        C  0.61725796  0.10240739  0.64913496     0.11200
H656        H  0.58486458  0.17652403  0.65284459     0.15700
H657        H  0.64741734  0.13030451  0.64678526     0.01400
H658        H  0.60050161  0.13418244  0.57219577     0.16000
H659        H  0.58452955  0.08447207  0.64680018     0.15800
C660        C  0.64546570  0.13417306  0.57922921    -0.01400
Zn661      Zn  0.84885988  0.14031838  0.66382555     1.49700
Zn662      Zn  0.88930931  0.17268146  0.62730679     1.49400
Zn663      Zn  0.88326219  0.09827033  0.62545914     1.49100
Zn664      Zn  0.84936750  0.14282383  0.59058923     1.49500
O665        O  0.86759295  0.13864291  0.62700052    -1.83000
O666        O  0.85865407  0.17681012  0.69099729    -0.73700
O667        O  0.92015194  0.15594082  0.62174867    -0.73500
O668        O  0.87613745  0.07142534  0.66173752    -0.73000
O669        O  0.88716211  0.19737793  0.66688203    -0.73700
O670        O  0.85185024  0.09941587  0.68810632    -0.73300
O671        O  0.91607237  0.10401030  0.62136733    -0.73900
O672        O  0.85316857  0.10514310  0.56210271    -0.73300
O673        O  0.88443105  0.20274874  0.59210528    -0.74000
O674        O  0.87423649  0.07305572  0.58898215    -0.73400
O675        O  0.85631679  0.18251944  0.56702338    -0.73900
O676        O  0.81779102  0.14569341  0.60242548    -0.73800
O677        O  0.81630796  0.14590186  0.65284692    -0.73600
C678        C  0.87409719  0.19693407  0.68954561     0.78200
C679        C  0.92822866  0.12828620  0.61938107     0.78700
C680        C  0.86317390  0.07439368  0.68424640     0.77700
C681        C  0.86304125  0.07888914  0.56538574     0.78100
C682        C  0.87090960  0.20356668  0.57017905     0.79200
C683        C  0.80680434  0.14714163  0.62702503     0.78200
C684        C  0.91877381  0.39301143  0.87097578     0.87600
C685        C  0.91343305  0.36559101  0.89227819    -0.52700
C686        C  0.89244914  0.36485883  0.90258324     0.10500
C687        C  0.87810126  0.39134121  0.88923569     0.21500
C688        C  0.90229794  0.39035751  0.84514165    -0.53400
C689        C  0.88079635  0.38959698  0.85378238     0.10600
C690        C  0.91143853  0.42252562  0.88911564    -0.52900
C691        C  0.89025605  0.42165111  0.89869633     0.11200
H692        H  0.92581468  0.34936978  0.90039553     0.15700
H693        H  0.86131160  0.39035885  0.89826809     0.01400
H694        H  0.90732108  0.38960182  0.82142227     0.16000
H695        H  0.92190145  0.44184745  0.89576768     0.15800
C696        C  0.86286596  0.38690382  0.82882561    -0.01400
Zn697      Zn  0.35077390  0.07408001  0.56030681     1.49700
Zn698      Zn  0.34962016  0.15059549  0.55977709     1.49400
Zn699      Zn  0.38465689  0.11383128  0.59805719     1.49100
Zn700      Zn  0.38914018  0.11280537  0.52501673     1.49500
O701        O  0.36847531  0.11286955  0.56022184    -1.83000
O702        O  0.31859710  0.08470650  0.55750102    -0.73700
O703        O  0.35313667  0.17853894  0.59809009    -0.73500
O704        O  0.38038860  0.07503976  0.62292278    -0.73000
O705        O  0.31779621  0.13712541  0.55630118    -0.73700
O706        O  0.35557363  0.04701649  0.59841377    -0.73300
O707        O  0.37691056  0.15072547  0.62456089    -0.73900
O708        O  0.42113340  0.11576669  0.53983219    -0.73300
O709        O  0.35721104  0.17728797  0.52315401    -0.74000
O710        O  0.41621901  0.11716998  0.58979097    -0.73400
O711        O  0.38290118  0.15090705  0.49764848    -0.73900
O712        O  0.38523493  0.07252552  0.49921633    -0.73800
O713        O  0.35871154  0.04747111  0.52364900    -0.73600
C714        C  0.30797783  0.11054015  0.55593762     0.78200
C715        C  0.36465841  0.17473485  0.62194009     0.78700
C716        C  0.36839952  0.05072906  0.62092991     0.77700
C717        C  0.42879092  0.11770323  0.56682337     0.78100
C718        C  0.37011543  0.17457631  0.50047175     0.79200
C719        C  0.37228519  0.04906924  0.50166549     0.78200
C720        C  0.41826779  0.36506293  0.81786486     0.87600
C721        C  0.41119200  0.39491623  0.80067797    -0.52700
C722        C  0.39034189  0.39410050  0.78993759     0.10500
C723        C  0.37790408  0.36386309  0.79839534     0.21500
C724        C  0.40103579  0.36189950  0.84312524    -0.53400
C725        C  0.37971555  0.36148041  0.83353538     0.10600
C726        C  0.41325063  0.33767447  0.79588962    -0.52900
C727        C  0.39226901  0.33697103  0.78569865     0.11200
H728        H  0.42225721  0.41417411  0.79563017     0.15700
H729        H  0.36119694  0.36377011  0.78909953     0.01400
H730        H  0.40478045  0.36090463  0.86707832     0.16000
H731        H  0.42545304  0.32077666  0.78831586     0.15800
C732        C  0.36097057  0.36109700  0.85748222    -0.01400
Zn733      Zn  0.15803538  0.36145785  0.76591370     1.49700
Zn734      Zn  0.12165551  0.40307801  0.80072239     1.49400
Zn735      Zn  0.11807725  0.32793309  0.80265540     1.49100
Zn736      Zn  0.15583515  0.36286026  0.83910914     1.49500
O737        O  0.13849513  0.36371208  0.80183607    -1.83000
O738        O  0.15538671  0.40175788  0.74035240    -0.73700
O739        O  0.08925450  0.39505933  0.80326158    -0.73500
O740        O  0.12040417  0.30305241  0.76323218    -0.73000
O741        O  0.12875477  0.42848983  0.76315332    -0.73700
O742        O  0.14884031  0.32405404  0.73925996    -0.73300
O743        O  0.08683672  0.34315287  0.80853759    -0.73900
O744        O  0.14910152  0.32459342  0.86466847    -0.73300
O745        O  0.12808506  0.43027029  0.83746044    -0.74000
O746        O  0.12449237  0.29826388  0.83796222    -0.73400
O747        O  0.15051501  0.40153560  0.86537733    -0.73900
O748        O  0.18772021  0.36076495  0.82886689    -0.73800
O749        O  0.19031972  0.35689669  0.77861706    -0.73600
C750        C  0.14282072  0.42578351  0.74188044     0.78200
C751        C  0.07793310  0.37037312  0.80789235     0.78700
C752        C  0.13356288  0.30361324  0.74069842     0.77700
C753        C  0.13670890  0.30079206  0.86127560     0.78100
C754        C  0.13919308  0.42642677  0.86157378     0.79200
C755        C  0.19926233  0.35794484  0.80484735     0.78200
C756        C  0.08857829  0.11288106  0.56092001     0.87600
C757        C  0.09501670  0.08501782  0.54021097    -0.52700
C758        C  0.11589803  0.08630505  0.52922974     0.10500
C759        C  0.12865208  0.11552271  0.54012661     0.21500
C760        C  0.10611173  0.11311401  0.58574696    -0.53400
C761        C  0.12729314  0.11412834  0.57551966     0.10600
C762        C  0.09363083  0.14234457  0.54211490    -0.52900
C763        C  0.11413329  0.14331207  0.53009276     0.11200
H764        H  0.08366996  0.06652740  0.53383672     0.15700
H765        H  0.14528392  0.11703674  0.53052866     0.01400
H766        H  0.10266752  0.11225193  0.60984298     0.16000
H767        H  0.08133625  0.15989836  0.53676747     0.15800
C768        C  0.14616409  0.11466525  0.59915034    -0.01400
C769        C  0.11383613  0.23286543  0.69436215    -0.27100
C770        C  0.13091769  0.22891514  0.67333101     0.06500
C771        C  0.14759679  0.25167096  0.67261918     0.26100
C772        C  0.14782920  0.27652167  0.69373707    -0.11600
C773        C  0.13151784  0.27934140  0.71613594    -0.25500
C774        C  0.11406891  0.25767951  0.71556038     0.36900
C775        C  0.13226327  0.19995516  0.65394737     0.06500
F776        F  0.16444207  0.24890100  0.65271938    -0.19300
H777        H  0.16134556  0.29288587  0.69324262     0.16300
F778        F  0.09741553  0.25989985  0.73583882    -0.23000
H779        H  0.10046909  0.21623763  0.69483830     0.18100
C780        C  0.12967405  0.16982171  0.66675061     0.26100
C781        C  0.13349065  0.14260757  0.64936735    -0.11600
C782        C  0.14063019  0.14444965  0.61880053    -0.25600
C783        C  0.14126421  0.17486487  0.60548039     0.37000
C784        C  0.13741287  0.20206367  0.62290350    -0.27200
F785        F  0.12428352  0.16651528  0.69653861    -0.19400
H786        H  0.13072438  0.12019584  0.66028180     0.16300
F787        F  0.14687369  0.17837657  0.57584760    -0.23100
H788        H  0.13884454  0.22492430  0.61216916     0.18200
C789        C  0.13511464  0.02996988  0.63140172    -0.27100
C790        C  0.14851430  0.02963101  0.65702254     0.06500
C791        C  0.16214823  0.05551780  0.66249339     0.26100
C792        C  0.16138922  0.08197625  0.64346156    -0.11600
C793        C  0.14679982  0.08373712  0.61858175    -0.25500
C794        C  0.13459352  0.05602494  0.61199143     0.36900
C795        C  0.14741471  0.00265449  0.67840313     0.06500
F796        F  0.17562210  0.05572352  0.68689943    -0.19300
H797        H  0.17179277  0.10179691  0.64884264     0.16300
F798        F  0.12271105  0.05278089  0.58638739    -0.23000
H799        H  0.12507414  0.00965328  0.62620870     0.18100
C800        C  0.12882826  0.49856606  0.69560497     0.26100
C801        C  0.12737975  0.47336220  0.71596648    -0.11600
C802        C  0.14454800  0.45155247  0.71894475    -0.25600
C803        C  0.16331561  0.45562919  0.70074166     0.37000
C804        C  0.16536178  0.98258418  0.68257154    -0.27200
F805        F  0.11191258  0.51907686  0.69344920    -0.19400
H806        H  0.11269918  0.47093292  0.72945995     0.16300
F807        F  0.18034313  0.43531172  0.70273339    -0.23100
H808        H  0.18033381  0.98673864  0.67014745     0.18200
C809        C  0.14276637  0.25878056  0.93738875    -0.27100
C810        C  0.13223556  0.22996436  0.93170860     0.06500
C811        C  0.12440134  0.22390131  0.90213857     0.26100
C812        C  0.12623452  0.24671308  0.87931404    -0.11600
C813        C  0.13616824  0.27596921  0.88520631    -0.25500
C814        C  0.14484164  0.28148733  0.91446966     0.36900
C815        C  0.12794916  0.20744409  0.95704453     0.06500
F816        F  0.11489907  0.19586419  0.89526970    -0.19300
H817        H  0.11970318  0.24149551  0.85699287     0.16300
F818        F  0.15458224  0.30931308  0.92145186    -0.23000
H819        H  0.14219594  0.26689366  0.46208334     0.18100
C820        C  0.14396426  0.20089807  0.47835605     0.26100
C821        C  0.13961800  0.17981687  0.50217033    -0.11600
C822        C  0.11946111  0.16438385  0.50404396    -0.25600
C823        C  0.10427386  0.16879666  0.48043298     0.37000
C824        C  0.10694630  0.19512143  0.96080186    -0.27200
F825        F  0.16350379  0.21576637  0.47747859    -0.19400
H826        H  0.15189226  0.17597639  0.51934048     0.16300
F827        F  0.08530643  0.15241472  0.47981300    -0.23100
H828        H  0.09401378  0.20176514  0.94540745     0.18200
C829        C  0.12424924  0.50027860  0.90703261    -0.27100
C830        C  0.13501640  0.99694528  0.93324409     0.06500
C831        C  0.14997130  0.97194216  0.93515710     0.26100
C832        C  0.15074683  0.44701343  0.91274409    -0.11600
C833        C  0.13856214  0.45100754  0.88593761    -0.25500
C834        C  0.12527548  0.47808975  0.88335877     0.36900
C835        C  0.13203471  0.01945591  0.95882348     0.06500
F836        F  0.16311523  0.96921403  0.95976451    -0.19300
H837        H  0.16109834  0.42653099  0.91554685     0.16300
F838        F  0.11281033  0.48290681  0.85835682    -0.23000
H839        H  0.11363997  0.52057444  0.90477353     0.18100
C840        C  0.14125007  0.05294825  0.45729136     0.26100
C841        C  0.13538024  0.07401080  0.48057089    -0.11600
C842        C  0.12445540  0.06323387  0.50664408    -0.25600
C843        C  0.12051913  0.03070105  0.50980029     0.37000
C844        C  0.12662617  0.00964789  0.48673086    -0.27200
F845        F  0.14464914  0.06280229  0.92872334    -0.19400
H846        H  0.13851373  0.09895486  0.47757979     0.16300
F847        F  0.11048719  0.01923182  0.53496660    -0.23100
H848        H  0.12276032  0.98485702  0.48922058     0.18200
C849        C  0.30017272  0.38468893  0.84332826    -0.27100
C850        C  0.29317333  0.36079004  0.82364376     0.06500
C851        C  0.30866466  0.33911937  0.81262460     0.26100
C852        C  0.33043786  0.34070656  0.82245700    -0.11600
C853        C  0.33766992  0.36413347  0.84321215    -0.25500
C854        C  0.32159845  0.38606511  0.85369471     0.36900
C855        C  0.26932165  0.35724713  0.81789599     0.06500
F856        F  0.30250896  0.31515540  0.79397672    -0.19300
H857        H  0.34157214  0.32248136  0.81493744     0.16300
F858        F  0.32513365  0.40672913  0.87674555    -0.23000
H859        H  0.28850577  0.40152230  0.85238558     0.18100
C860        C  0.25474182  0.35693598  0.84265078     0.26100
C861        C  0.23229485  0.35653182  0.83791771    -0.11600
C862        C  0.22348490  0.35632547  0.80838885    -0.25600
C863        C  0.23806295  0.35543342  0.78344743     0.37000
C864        C  0.26075867  0.35586046  0.78825284    -0.27200
F865        F  0.26222055  0.35709849  0.87169477    -0.19400
H866        H  0.22176616  0.35676099  0.85773053     0.16300
F867        F  0.23049864  0.35482945  0.75448046    -0.23100
H868        H  0.27163065  0.35605555  0.76880791     0.18200
C869        C  0.24890764  0.08271182  0.56132671    -0.27100
C870        C  0.23747732  0.11111589  0.55725064     0.06500
C871        C  0.24932616  0.13848526  0.54994112     0.26100
C872        C  0.27208830  0.13781545  0.54858788    -0.11600
C873        C  0.28369262  0.10984352  0.55433119    -0.25500
C874        C  0.27174415  0.08194718  0.55981659     0.36900
C875        C  0.21385750  0.11331642  0.56502771     0.06500
F876        F  0.23886463  0.16622598  0.54500555    -0.19300
H877        H  0.28065714  0.15954641  0.54374798     0.16300
F878        F  0.28204738  0.05418439  0.56522571    -0.23000
H879        H  0.24022242  0.06138795  0.56731039     0.18100
C880        C  0.19823153  0.09215047  0.55363211     0.26100
C881        C  0.17647001  0.09382532  0.56368697    -0.11600
C882        C  0.16948352  0.11687456  0.58505610    -0.25600
C883        C  0.18586834  0.13719218  0.59707724     0.37000
C884        C  0.20728618  0.13570224  0.58662871    -0.27200
F885        F  0.20402604  0.06959355  0.53311699    -0.19400
H886        H  0.16510387  0.07627286  0.55544857     0.16300
F887        F  0.18232174  0.15660914  0.62119604    -0.23100
H888        H  0.21922350  0.15114959  0.59699291     0.18200
C889        C  0.36834901  0.21722734  0.92617520    -0.27100
C890        C  0.36627593  0.24887535  0.43374594     0.06500
C891        C  0.36546680  0.25559290  0.46516135     0.26100
C892        C  0.36699306  0.23133066  0.48649380    -0.11600
C893        C  0.37004436  0.19988354  0.47721540    -0.25500
C894        C  0.37195131  0.19317989  0.44590468     0.36900
C895        C  0.36270946  0.27469349  0.91291605     0.06500
F896        F  0.36348945  0.28576922  0.47534447    -0.19300
H897        H  0.36589740  0.23718921  0.51047510     0.16300
F898        F  0.37485009  0.16306342  0.43602820    -0.23000
H899        H  0.36848109  0.21119038  0.90220965     0.18100
C900        C  0.37654561  0.27755771  0.88754500     0.26100
C901        C  0.37521294  0.30401270  0.86862209    -0.11600
C902        C  0.36066385  0.32919505  0.87511911    -0.25600
C903        C  0.34543880  0.32444000  0.89897482     0.37000
C904        C  0.34655463  0.29771513  0.91744188    -0.27200
F905        F  0.39215992  0.25561589  0.88178145    -0.19400
H906        H  0.38619948  0.30467685  0.84942611     0.16300
F907        F  0.33042133  0.34680277  0.90606600    -0.23100
H908        H  0.33506893  0.29551605  0.93605798     0.18200
C909        C  0.38586253  0.99803802  0.93356888    -0.27100
C910        C  0.37157247  0.47224685  0.43662691     0.06500
C911        C  0.35851335  0.47164138  0.46293873     0.26100
C912        C  0.35924266  0.99632277  0.48355785    -0.11600
C913        C  0.37266927  0.02275889  0.47885864    -0.25500
C914        C  0.38588960  0.02332478  0.45249135     0.36900
C915        C  0.37301722  0.44366466  0.91660144     0.06500
F916        F  0.34502812  0.44693249  0.46840386    -0.19300
H917        H  0.34874897  0.99498822  0.50335576     0.16300
F918        F  0.39905465  0.04827854  0.44666723    -0.23000
H919        H  0.39660748  0.99871809  0.91399599     0.18100
C920        C  0.36904387  0.44723463  0.88535860     0.26100
C921        C  0.36633929  0.42056572  0.86669119    -0.11600
C922        C  0.36652314  0.38962879  0.87888178    -0.25600
C923        C  0.37358745  0.38660810  0.90953767     0.37000
C924        C  0.37619127  0.41323158  0.92802171    -0.27200
F925        F  0.36651017  0.47638637  0.87320540    -0.19400
H926        H  0.36257697  0.42404674  0.84287689     0.16300
F927        F  0.37919599  0.35848230  0.92181512    -0.23100
H928        H  0.38071036  0.41004521  0.95162296     0.18200
C929        C  0.38948177  0.50351922  0.68851539    -0.27100
C930        C  0.37188604  0.48348181  0.69473248     0.06500
C931        C  0.35310588  0.98431367  0.67513348     0.26100
C932        C  0.35234364  0.00569284  0.65081195    -0.11600
C933        C  0.36958819  0.02681517  0.64558122    -0.25500
C934        C  0.38784195  0.02564578  0.66494134     0.36900
C935        C  0.37353235  0.46084408  0.72041809     0.06500
F936        F  0.33578269  0.96519803  0.68022413    -0.19300
H937        H  0.33803708  0.00620847  0.63649316     0.16300
F938        F  0.40522821  0.04482427  0.66042167    -0.23000
H939        H  0.40406783  0.50241589  0.70225975     0.18100
C940        C  0.37030612  0.42830514  0.71580384     0.26100
C941        C  0.37438416  0.40693256  0.73932244    -0.11600
C942        C  0.38228497  0.41746091  0.76754164    -0.25600
C943        C  0.38467422  0.45003257  0.77261273     0.37000
C944        C  0.38027210  0.47148021  0.74926631    -0.27200
F945        F  0.36472414  0.41695293  0.68797681    -0.19400
H946        H  0.37253563  0.38194702  0.73486734     0.16300
F947        F  0.39160421  0.46103014  0.79997203    -0.23100
H948        H  0.38159529  0.99676211  0.75337914     0.18200
C949        C  0.38592755  0.29616205  0.70927810    -0.27100
C950        C  0.37280648  0.27014622  0.71666714     0.06500
C951        C  0.36561614  0.26674184  0.74698196     0.26100
C952        C  0.37157935  0.28888431  0.76930699    -0.11600
C953        C  0.38500169  0.31447206  0.76187418    -0.25500
C954        C  0.39216055  0.31793898  0.73168162     0.36900
C955        C  0.36838800  0.24543206  0.69323499     0.06500
F956        F  0.35294256  0.24190955  0.75501614    -0.19300
H957        H  0.36623631  0.28555318  0.79256603     0.16300
F958        F  0.40547978  0.34217267  0.72398081    -0.23000
H959        H  0.39199704  0.29900076  0.68628629     0.18100
C960        C  0.35955326  0.25304144  0.66464239     0.26100
C961        C  0.35749907  0.22980320  0.64188342    -0.11600
C962        C  0.36452353  0.19864991  0.64701900    -0.25600
C963        C  0.37275668  0.19100960  0.67604945     0.37000
C964        C  0.37454922  0.21410635  0.69876118    -0.27200
F965        F  0.35307013  0.28300503  0.65865729    -0.19400
H966        H  0.35107342  0.23644996  0.61990762     0.16300
F967        F  0.37943909  0.16124252  0.68252541    -0.23100
H968        H  0.38152954  0.20769240  0.72047837     0.18200
C969        C  0.97104128  0.36153708  0.83325193    -0.27100
C970        C  0.98649157  0.38483734  0.84012048     0.06500
C971        C  0.97966011  0.41179387  0.85638076     0.26100
C972        C  0.95796782  0.41504544  0.86586480    -0.11600
C973        C  0.94244121  0.39136848  0.85963929    -0.25500
C974        C  0.94941114  0.36459876  0.84290159     0.36900
C975        C  0.00967597  0.38065458  0.83068786     0.06500
F976        F  0.99413388  0.43461362  0.86412792    -0.19300
H977        H  0.95387063  0.43607630  0.87848463     0.16300
F978        F  0.93525590  0.34103749  0.83608672    -0.23000
H979        H  0.97573555  0.34077340  0.82033003     0.18100
C980        C  0.02078114  0.35214649  0.83615943     0.26100
C981        C  0.04267596  0.34866620  0.82776236    -0.11600
C982        C  0.05414613  0.37357863  0.81404494    -0.25600
C983        C  0.04292964  0.40200692  0.80827699     0.37000
C984        C  0.02096242  0.40532865  0.81637923    -0.27200
F985        F  0.01074184  0.32802751  0.85077127    -0.19400
H986        H  0.05084630  0.32667241  0.83290837     0.16300
F987        F  0.05312122  0.42672104  0.79484916    -0.23100
H988        H  0.01273139  0.42732605  0.81143304     0.18200
C989        C  0.87185835  0.47103804  0.79362500    -0.27100
C990        C  0.85805505  0.46999336  0.76839717     0.06500
C991        C  0.84535910  0.44291109  0.76373340     0.26100
C992        C  0.84686580  0.41730689  0.78369073    -0.11600
C993        C  0.86166986  0.41713996  0.80839291    -0.25500
C994        C  0.87360636  0.44544957  0.81348882     0.36900
C995        C  0.85767857  0.49686120  0.74667252     0.06500
F996        F  0.83133178  0.44125902  0.73998506    -0.19300
H997        H  0.83680884  0.39685922  0.77923959     0.16300
F998        F  0.88671354  0.44967093  0.83775502    -0.23000
H999        H  0.88166548  0.49182513  0.79783828     0.18100
C1000       C  0.85482176  0.02873800  0.75754308     0.26100
C1001       C  0.85607401  0.05366486  0.73674925    -0.11600
C1002       C  0.86114470  0.04788190  0.70602231    -0.25600
C1003       C  0.86437270  0.01645701  0.69629552     0.37000
C1004       C  0.86188002  0.49147998  0.71567217    -0.27200
F1005       F  0.85024132  0.03522391  0.78715600    -0.19400
H1006       H  0.85350948  0.07758647  0.74480486     0.16300
F1007       F  0.86879955  0.00968581  0.66668381    -0.23100
H1008       H  0.86456109  0.46768618  0.70732654     0.18200
C1009       C  0.86235726  0.24984086  0.75814134    -0.27100
C1010       C  0.87916204  0.27219916  0.75596365     0.06500
C1011       C  0.89559985  0.26744777  0.73403787     0.26100
C1012       C  0.89422191  0.24235202  0.71327086    -0.11600
C1013       C  0.87662055  0.22110066  0.71410686    -0.25500
C1014       C  0.86108812  0.22449413  0.73762651     0.36900
C1015       C  0.87832044  0.30137991  0.77505305     0.06500
F1016       F  0.91291520  0.28723956  0.73246795    -0.19300
H1017       H  0.90678371  0.24000731  0.69605902     0.16300
F1018       F  0.84415329  0.20414300  0.74022272    -0.23000
H1019       H  0.84959830  0.25275409  0.77499868     0.18100
C1020       C  0.88002683  0.33138047  0.76174080     0.26100
C1021       C  0.87627449  0.35869153  0.77899757    -0.11600
C1022       C  0.86966560  0.35708216  0.80984290    -0.25600
C1023       C  0.87017510  0.32690022  0.82363138     0.37000
C1024       C  0.87400991  0.29955678  0.80635534    -0.27200
F1025       F  0.88413799  0.33443834  0.73153523    -0.19400
H1026       H  0.87834869  0.38096633  0.76756078     0.16300
F1027       F  0.86544057  0.32361401  0.85353161    -0.23100
H1028       H  0.87306155  0.27677507  0.81735448     0.18200
C1029       C  0.86351155  0.49291027  0.93642440    -0.27100
C1030       C  0.87111895  0.49013897  0.96650446     0.06500
C1031       C  0.88416971  0.46386965  0.97391879     0.26100
C1032       C  0.88942591  0.44122283  0.95187240    -0.11600
C1033       C  0.88212748  0.44430681  0.92188532    -0.25500
C1034       C  0.86912928  0.47037186  0.91419887     0.36900
C1035       C  0.86614002  0.51479282  0.98997632     0.06500
F1036       F  0.89277808  0.46077031  0.00215200    -0.19300
H1037       H  0.89983250  0.42159852  0.95800182     0.16300
F1038       F  0.86251687  0.47472303  0.88512222    -0.23000
H1039       H  0.85336280  0.51269142  0.93002954     0.18100
C1040       C  0.86610859  0.04455310  0.98481524     0.26100
C1041       C  0.86365883  0.06706525  0.00812228    -0.11600
C1042       C  0.86170139  0.05764559  0.03860125    -0.25600
C1043       C  0.86068937  0.02525520  0.04520783     0.37000
C1044       C  0.86036812  0.50571922  0.01967868    -0.27200
F1045       F  0.86977426  0.05474460  0.95602401    -0.19400
H1046       H  0.86453333  0.09190447  0.00253134     0.16300
F1047       F  0.85831450  0.01308923  0.57737030    -0.23100
H1048       H  0.85778694  0.48107820  0.02500553     0.18200
C1049       C  0.89504518  0.26241493  0.01288169    -0.27100
C1050       C  0.87656806  0.27935434  0.00327170     0.06500
C1051       C  0.85620901  0.27157781  0.01619102     0.26100
C1052       C  0.85453080  0.24718721  0.03761019    -0.11600
C1053       C  0.87313378  0.23082102  0.04736273    -0.25500
C1054       C  0.89345885  0.23894729  0.03502778     0.36900
C1055       C  0.87890501  0.30419539  0.97930355     0.06500
F1056       F  0.83799899  0.28793400  0.00874404    -0.19300
H1057       H  0.83861261  0.24111144  0.54786928     0.16300
F1058       F  0.91174402  0.22330298  0.04350684    -0.23000
H1059       H  0.91084119  0.26689323  0.00282937     0.18100
C1060       C  0.89712619  0.32436234  0.97903999     0.26100
C1061       C  0.90095861  0.34430719  0.95439810    -0.11600
C1062       C  0.88648746  0.34556974  0.92971610    -0.25600
C1063       C  0.86716938  0.32791634  0.93128921     0.37000
C1064       C  0.86371079  0.30686503  0.95544939    -0.27200
F1065       F  0.91136606  0.32484619  0.00259284    -0.19400
H1066       H  0.91544739  0.35884741  0.95457702     0.16300
F1067       F  0.85199125  0.33003475  0.90909711    -0.23100
H1068       H  0.84946421  0.29189860  0.95484932     0.18200
C1069       C  0.98398148  0.09137473  0.60314388    -0.27100
C1070       C  0.99657170  0.11808740  0.59665193     0.06500
C1071       C  0.98694761  0.14807436  0.59881929     0.26100
C1072       C  0.96496140  0.15121553  0.60695851    -0.11600
C1073       C  0.95202957  0.12448684  0.61298224    -0.25500
C1074       C  0.96193658  0.09439874  0.61115446     0.36900
C1075       C  0.01978013  0.11470365  0.58781416     0.06500
F1076       F  0.99885088  0.17433927  0.59299588    -0.19300
H1077       H  0.95798274  0.17467892  0.60805835     0.16300
F1078       F  0.95037769  0.06779391  0.61683893    -0.23000
H1079       H  0.99122165  0.06808395  0.60172581     0.18100
C1080       C  0.03590474  0.11136912  0.61003015     0.26100
C1081       C  0.05793746  0.11000577  0.60175331    -0.11600
C1082       C  0.06451245  0.11186785  0.57093779    -0.25600
C1083       C  0.04794952  0.11377621  0.54868431     0.37000
C1084       C  0.02594525  0.11553150  0.55711887    -0.27200
F1085       F  0.03032822  0.11004217  0.63990688    -0.19400
H1086       H  0.06946343  0.10765026  0.61999028     0.16300
F1087       F  0.05308364  0.11465055  0.51862720    -0.23100
H1088       H  0.01365977  0.11777954  0.53963306     0.18200
C1089       C  0.74995234  0.15342895  0.59339937    -0.27100
C1090       C  0.73651693  0.14750546  0.61854766     0.06500
C1091       C  0.74612676  0.14432900  0.64739435     0.26100
C1092       C  0.76896219  0.14531769  0.65047538    -0.11600
C1093       C  0.78253219  0.14961649  0.62485131    -0.25500
C1094       C  0.77254921  0.15469245  0.59637058     0.36900
C1095       C  0.71296200  0.14158300  0.61310459     0.06500
F1096       F  0.73355847  0.13868574  0.67222359    -0.19300
H1097       H  0.77602717  0.14162736  0.67271724     0.16300
F1098       F  0.78456172  0.16019325  0.57096761    -0.23000
H1099       H  0.74286432  0.15627092  0.57102881     0.18100
C1100       C  0.69664963  0.16232106  0.62329025     0.26100
C1101       C  0.67508620  0.15870261  0.61318374    -0.11600
C1102       C  0.66890957  0.13386984  0.59321198    -0.25600
C1103       C  0.68583839  0.11308405  0.58338546     0.37000
C1104       C  0.70717304  0.11682334  0.59364132    -0.27200
F1105       F  0.70177489  0.18721414  0.64142245    -0.19400
H1106       H  0.66316111  0.17615622  0.62019102     0.16300
F1107       F  0.68369560  0.08949455  0.06457615    -0.23100
H1108       H  0.72007075  0.09897998  0.08932416     0.18200
C1109       C  0.48248502  0.12940426  0.60810714    -0.27100
C1110       C  0.49787197  0.12531613  0.58481227     0.06500
C1111       C  0.49047874  0.11881588  0.55512201     0.26100
C1112       C  0.46805083  0.11660865  0.54907614    -0.11600
C1113       C  0.45263231  0.12069843  0.57254461    -0.25500
C1114       C  0.46025815  0.12734749  0.60221447     0.36900
C1115       C  0.52143277  0.12820279  0.59219967     0.06500
F1116       F  0.50489017  0.11528790  0.53188585    -0.19300
H1117       H  0.46277203  0.11157729  0.52607865     0.16300
F1118       F  0.44631438  0.13213336  0.62583871    -0.23000
H1119       H  0.48772114  0.13407682  0.63120844     0.18100
C1120       C  0.52897110  0.15410509  0.60917701     0.26100
C1121       C  0.55067100  0.15581053  0.61837782    -0.11600
C1122       C  0.56563157  0.13141826  0.61139496    -0.25600
C1123       C  0.55809658  0.10596408  0.59337345     0.37000
C1124       C  0.53629387  0.10441456  0.58398743    -0.27200
F1125       F  0.51532247  0.17815288  0.61677991    -0.19400
H1126       H  0.55520076  0.17673295  0.63068746     0.16300
F1127       F  0.57181727  0.08227417  0.58507891    -0.23100
H1128       H  0.53088575  0.08414392  0.57097792     0.18200
C1129       C  0.76078538  0.35870872  0.88038996    -0.27100
C1130       C  0.77149648  0.38589708  0.86998341     0.06500
C1131       C  0.75910391  0.41308806  0.86397684     0.26100
C1132       C  0.73645941  0.41274248  0.86767826    -0.11600
C1133       C  0.72559119  0.38521222  0.87705308    -0.25500
C1134       C  0.73811916  0.35827862  0.88397822     0.36900
C1135       C  0.79507941  0.38459456  0.86224110     0.06500
F1136       F  0.76868433  0.43938765  0.85263003    -0.19300
H1137       H  0.72733751  0.43377254  0.86195656     0.16300
F1138       F  0.72852327  0.33133741  0.89381270    -0.23000
H1139       H  0.77000276  0.33748794  0.88513587     0.18100
C1140       C  0.80978263  0.40774417  0.87218029     0.26100
C1141       C  0.83139416  0.40747372  0.86185472    -0.11600
C1142       C  0.83941422  0.38359396  0.84220807    -0.25600
C1143       C  0.82401185  0.36084940  0.83176216     0.37000
C1144       C  0.80254424  0.36112173  0.84231601    -0.27200
F1145       F  0.80321483  0.43089716  0.89159669    -0.19400
H1146       H  0.84190243  0.42660601  0.86872923     0.16300
F1147       F  0.82843002  0.34013668  0.80896925    -0.23100
H1148       H  0.79125377  0.34383888  0.83331402     0.18200
C1149       C  0.65064627  0.52342476  0.97597664    -0.27100
C1150       C  0.63680729  0.02274334  0.00128364     0.06500
C1151       C  0.62353514  0.49542602  0.00528040     0.26100
C1152       C  0.62404361  0.47072839  0.98377951    -0.11600
C1153       C  0.63782240  0.47216474  0.95807572    -0.25500
C1154       C  0.65127740  0.49890293  0.95466081     0.36900
C1155       C  0.63597851  0.05021208  0.02253824     0.06500
F1156       F  0.61040843  0.99336109  0.02977854    -0.19300
H1157       H  0.61348898  0.45059243  0.98714212     0.16300
F1158       F  0.66496474  0.50179721  0.93052839    -0.23000
H1159       H  0.66105710  0.54373338  0.97256266     0.18100
C1160       C  0.64026791  0.04739694  0.05380242     0.26100
C1161       C  0.64251043  0.07455718  0.07201349    -0.11600
C1162       C  0.64155167  0.10522513  0.05933006    -0.25600
C1163       C  0.63418909  0.10731176  0.02872935     0.37000
C1164       C  0.63211803  0.08028577  0.01069757    -0.27200
F1165       F  0.64332971  0.51838807  0.06648337    -0.19400
H1166       H  0.64680825  0.07178354  0.59621571     0.16300
F1167       F  0.62786536  0.13490247  0.01600589    -0.23100
H1168       H  0.62747662  0.08288330  0.98707239     0.18200
C1169       C  0.64352497  0.24022048  0.97025986    -0.27100
C1170       C  0.64254929  0.24675593  0.00160275     0.06500
C1171       C  0.63990283  0.27834263  0.01122420     0.26100
C1172       C  0.63808335  0.30264187  0.98977943    -0.11600
C1173       C  0.63949738  0.29596474  0.95851421    -0.25500
C1174       C  0.64219986  0.26447083  0.94895663     0.36900
C1175       C  0.64452715  0.22030019  0.02362865     0.06500
F1176       F  0.64001603  0.28591205  0.04126270    -0.19300
H1177       H  0.63638471  0.32680288  0.99760837     0.16300
F1178       F  0.64327349  0.25705527  0.91889236    -0.23000
H1179       H  0.64529204  0.21614921  0.96219184     0.18100
C1180       C  0.62980337  0.21678044  0.04788570     0.26100
C1181       C  0.63099691  0.19048121  0.06694711    -0.11600
C1182       C  0.64611875  0.16580299  0.06139108    -0.25600
C1183       C  0.66156448  0.17052063  0.03779153     0.37000
C1184       C  0.66067946  0.19724954  0.01933143    -0.27200
F1185       F  0.61348184  0.23793484  0.05237271    -0.19400
H1186       H  0.61956141  0.18969863  0.08558272     0.16300
F1187       F  0.67483836  0.14800151  0.52920937    -0.23100
H1188       H  0.67243822  0.19958093  0.00106307     0.18200
C1189       C  0.63086269  0.02448683  0.68632826    -0.27100
C1190       C  0.63525007  0.03417730  0.71639027     0.06500
C1191       C  0.63551978  0.06666511  0.72317232     0.26100
C1192       C  0.63058488  0.08871067  0.70068540    -0.11600
C1193       C  0.62541508  0.07893579  0.67108849    -0.25500
C1194       C  0.62575038  0.04664018  0.66390931     0.36900
C1195       C  0.63752927  0.01048084  0.74104868     0.06500
F1196       F  0.63899508  0.07706086  0.75200873    -0.19300
H1197       H  0.62940440  0.11332424  0.70696723     0.16300
F1198       F  0.62052991  0.03653480  0.63550472    -0.23000
H1199       H  0.63071365  0.49999104  0.68060304     0.18100
C1200       C  0.62233326  0.48603923  0.74383798     0.26100
C1201       C  0.62365815  0.46470099  0.76784105    -0.11600
C1202       C  0.63984990  0.46757917  0.79024519    -0.25600
C1203       C  0.65495168  0.49245869  0.78784948     0.37000
C1204       C  0.65423447  0.01299123  0.76275094    -0.27200
F1205       F  0.60573422  0.48299149  0.72373120    -0.19400
H1206       H  0.61166911  0.44603170  0.76903181     0.16300
F1207       F  0.67091958  0.49627772  0.80880530    -0.23100
H1208       H  0.66633281  0.03144448  0.76084798     0.18200
C1209       C  0.62308950  0.23695910  0.69557817    -0.27100
C1210       C  0.63828453  0.22913713  0.71811926     0.06500
C1211       C  0.64848315  0.19935909  0.71660797     0.26100
C1212       C  0.64270821  0.17754267  0.69388807    -0.11600
C1213       C  0.62644148  0.18475101  0.67253596    -0.25500
C1214       C  0.61761546  0.21550517  0.67271826     0.36900
C1215       C  0.64269436  0.25202149  0.74325650     0.06500
F1216       F  0.66399101  0.19128153  0.73707696    -0.19300
H1217       H  0.65064592  0.15479141  0.69368008     0.16300
F1218       F  0.60370623  0.22515718  0.65069363    -0.23000
H1219       H  0.61493932  0.25962942  0.69594829     0.18100
C1220       C  0.64477114  0.28450672  0.73716717     0.26100
C1221       C  0.64585633  0.30637173  0.76097531    -0.11600
C1222       C  0.64557883  0.29643679  0.79135665    -0.25600
C1223       C  0.64470597  0.26396391  0.79765208     0.37000
C1224       C  0.64304114  0.24200311  0.77377414    -0.27200
F1225       F  0.64559738  0.29525226  0.70813992    -0.19400
H1226       H  0.64679511  0.33127620  0.75564767     0.16300
F1227       F  0.64408160  0.25362001  0.82683071    -0.23100
H1228       H  0.64111185  0.21727307  0.77923634     0.18200
C1229       C  0.51843540  0.38741915  0.87737749    -0.27100
C1230       C  0.51111253  0.37025388  0.85180025     0.06500
C1231       C  0.52669206  0.35467867  0.83356361     0.29300
C1232       C  0.54887615  0.35709100  0.84014962    -0.11600
C1233       C  0.55626076  0.37456172  0.86536500    -0.25500
C1234       C  0.54075523  0.38941099  0.88426319     0.36900
C1235       C  0.48743699  0.36898928  0.84377401     0.06500
F1236       F  0.52049987  0.33662298  0.80951880    -0.19300
H1237       H  0.56039162  0.34504704  0.82539840     0.16300
F1238       F  0.54717378  0.40693847  0.90854509    -0.23000
H1239       H  0.50689862  0.39996792  0.89166979     0.18100
C1240       C  0.47142079  0.36283677  0.86587714     0.26100
C1241       C  0.44933071  0.36138307  0.85792010    -0.11600
C1242       C  0.44241635  0.36599554  0.82755967    -0.25600
C1243       C  0.45870071  0.37147898  0.80542970     0.37000
C1244       C  0.48071897  0.37335109  0.81352227    -0.27200
F1245       F  0.47713160  0.35716248  0.89516174    -0.19400
H1246       H  0.43807895  0.35597454  0.87595203     0.16300
F1247       F  0.45331888  0.37522079  0.77572756    -0.23100
H1248       H  0.49258534  0.37841460  0.79594741     0.18200
Zn1249     Zn  0.65854309  0.92151841  0.37597033     1.49700
Zn1250     Zn  0.62351697  0.88364223  0.33758593     1.49400
Zn1251     Zn  0.65822796  0.84566898  0.37587783     1.49100
Zn1252     Zn  0.61927948  0.88414859  0.41036312     1.49500
O1253       O  0.63989578  0.88379491  0.37539780    -1.83000
O1254       O  0.65398264  0.94932103  0.33849756    -0.73700
O1255       O  0.63163651  0.84743066  0.31054428    -0.73500
O1256       O  0.69039094  0.85693499  0.37787485    -0.73000
O1257       O  0.62881599  0.92255631  0.31334827    -0.73700
O1258       O  0.69053608  0.90928774  0.37685894    -0.73300
O1259       O  0.65396875  0.81825301  0.33828644    -0.73900
O1260       O  0.62450622  0.84517783  0.43697182    -0.73300
O1261       O  0.59152081  0.88026897  0.34536415    -0.74000
O1262       O  0.65053123  0.81903607  0.41195253    -0.73400
O1263       O  0.58731122  0.88336437  0.39552658    -0.73900
O1264       O  0.62430247  0.92330682  0.43694038    -0.73800
O1265       O  0.65174065  0.94744325  0.41363737    -0.73600
C1266       C  0.64138943  0.94624395  0.31565665     0.78200
C1267       C  0.64328208  0.82291031  0.31393847     0.78700
C1268       C  0.70071970  0.88303125  0.37756758     0.77700
C1269       C  0.63721779  0.82143579  0.43411995     0.78100
C1270       C  0.57930278  0.88087156  0.36878792     0.79200
C1271       C  0.63800757  0.94591786  0.43543779     0.78200
C1272       C  0.59008057  0.63268110  0.12015180     0.87600
C1273       C  0.59603505  0.66152105  0.14004922    -0.52700
C1274       C  0.61729035  0.66258151  0.14929413     0.10500
C1275       C  0.63060905  0.63372736  0.13847721     0.21500
C1276       C  0.60683115  0.63289359  0.09436042    -0.53400
C1277       C  0.62825661  0.63373760  0.10334660     0.10600
C1278       C  0.59649857  0.60448677  0.14000123    -0.52900
C1279       C  0.61755580  0.60505750  0.14969084     0.11200
H1280       H  0.58428492  0.67841681  0.14845706     0.15700
H1281       H  0.64749132  0.63311864  0.14691754     0.01400
H1282       H  0.60205456  0.63287928  0.07058841     0.16000
H1283       H  0.58506211  0.58639531  0.14706167     0.15800
C1284       C  0.64683390  0.63439070  0.07934429    -0.01400
Zn1285     Zn  0.85017266  0.64218770  0.16378022     1.49700
Zn1286     Zn  0.89041527  0.67405597  0.12667580     1.49400
Zn1287     Zn  0.88317777  0.59957715  0.12365303     1.49100
Zn1288     Zn  0.84960444  0.64635797  0.09039429     1.49500
O1289       O  0.86824718  0.64054609  0.12633067    -1.83000
O1290       O  0.85965680  0.67990341  0.18975051    -0.73700
O1291       O  0.92105020  0.65652209  0.12243215    -0.73500
O1292       O  0.87591925  0.57219655  0.16004377    -0.73000
O1293       O  0.88818012  0.69994990  0.16532801    -0.73700
O1294       O  0.85395608  0.60168718  0.18874981    -0.73300
O1295       O  0.91619166  0.60474710  0.11986566    -0.73900
O1296       O  0.85336417  0.60998822  0.06015763    -0.73300
O1297       O  0.88619699  0.70410528  0.09143863    -0.74000
O1298       O  0.87371301  0.57599088  0.08601242    -0.73400
O1299       O  0.85638101  0.68706836  0.06815458    -0.73900
O1300       O  0.81802597  0.64834562  0.10305207    -0.73800
O1301       O  0.81744541  0.64638569  0.15352947    -0.73600
C1302       C  0.87496111  0.70022137  0.18777297     0.78200
C1303       C  0.92874162  0.62872221  0.11932730     0.78700
C1304       C  0.86425750  0.57591231  0.18387239     0.77700
C1305       C  0.86282610  0.58329003  0.06245205     0.78100
C1306       C  0.87191969  0.70676341  0.07064573     0.79200
C1307       C  0.80748980  0.64839999  0.12809363     0.78200
C1308       C  0.91934248  0.89238376  0.37015350     0.87600
C1309       C  0.91428977  0.86335144  0.38956955    -0.52700
C1310       C  0.89349460  0.86195399  0.40062889     0.10500
C1311       C  0.87898267  0.88939357  0.38966980     0.21500
C1312       C  0.90236154  0.89182824  0.34483083    -0.53400
C1313       C  0.88100091  0.89021587  0.35418076     0.10600
C1314       C  0.91238402  0.92042949  0.39060082    -0.52900
C1315       C  0.89137673  0.91882760  0.40079308     0.11200
H1316       H  0.92678527  0.84651546  0.39603074     0.15700
H1317       H  0.86235409  0.88787813  0.39917292     0.01400
H1318       H  0.90694710  0.89270216  0.32095506     0.16000
H1319       H  0.92292262  0.93935569  0.39803092     0.15800
C1320       C  0.86261867  0.88816438  0.32980495    -0.01400
Zn1321     Zn  0.35137808  0.57365248  0.06126582     1.49700
Zn1322     Zn  0.35000938  0.64973399  0.06120833     1.49400
Zn1323     Zn  0.38586278  0.61348603  0.09837907     1.49100
Zn1324     Zn  0.38943589  0.61194699  0.02577890     1.49500
O1325       O  0.36908787  0.61231166  0.06112655    -1.83000
O1326       O  0.31924249  0.58374680  0.05871431    -0.73700
O1327       O  0.35365212  0.67748514  0.09967165    -0.73500
O1328       O  0.38150825  0.57511359  0.12331712    -0.73000
O1329       O  0.31821078  0.63613806  0.05757163    -0.73700
O1330       O  0.35644463  0.54720397  0.09908556    -0.73300
O1331       O  0.37863433  0.65053818  0.12475214    -0.73900
O1332       O  0.42163509  0.61389138  0.03975079    -0.73300
O1333       O  0.35743593  0.67642395  0.02463082    -0.74000
O1334       O  0.41743394  0.61571564  0.08978543    -0.73400
O1335       O  0.38296474  0.65002488  0.99871315    -0.73900
O1336       O  0.38521267  0.57188943  0.00017892    -0.73800
O1337       O  0.35901749  0.54658548  0.02496025    -0.73600
C1338       C  0.30853223  0.60945494  0.05707966     0.78200
C1339       C  0.36592742  0.67410933  0.12284826     0.78700
C1340       C  0.36942712  0.55093065  0.12136117     0.77700
C1341       C  0.42970457  0.61554387  0.06650553     0.78100
C1342       C  0.37018093  0.67366072  0.00178005     0.79200
C1343       C  0.37243764  0.54830054  0.00284029     0.78200
C1344       C  0.41782895  0.86807584  0.31706421     0.87600
C1345       C  0.40997196  0.89792756  0.30060759    -0.52700
C1346       C  0.38918346  0.89616275  0.28980927     0.10500
C1347       C  0.37757363  0.86513194  0.29759534     0.21500
C1348       C  0.40074618  0.86350439  0.34228018    -0.53400
C1349       C  0.37945993  0.86221856  0.33265277     0.10600
C1350       C  0.41353649  0.84092500  0.29455002    -0.52900
C1351       C  0.39258444  0.83928641  0.28443978     0.11200
H1352       H  0.42049403  0.91793709  0.29606490     0.15700
H1353       H  0.36091733  0.86434685  0.28822425     0.01400
H1354       H  0.40454082  0.86268866  0.36624687     0.16000
H1355       H  0.42611770  0.82469284  0.28683572     0.15800
C1356       C  0.36071686  0.86107908  0.35646679    -0.01400
Zn1357     Zn  0.15862228  0.86371741  0.26651267     1.49700
Zn1358     Zn  0.12291586  0.90555756  0.30258206     1.49400
Zn1359     Zn  0.11902030  0.83014872  0.30281230     1.49100
Zn1360     Zn  0.15695959  0.86438155  0.33997760     1.49500
O1361       O  0.13942448  0.86585979  0.30276054    -1.83000
O1362       O  0.15545362  0.90373610  0.24106678    -0.73700
O1363       O  0.09039807  0.89768957  0.30474855    -0.73500
O1364       O  0.12291341  0.80359112  0.26447873    -0.73000
O1365       O  0.13045494  0.93188315  0.26585542    -0.73700
O1366       O  0.15084932  0.82544078  0.24022582    -0.73300
O1367       O  0.08761340  0.84551515  0.30650045    -0.73900
O1368       O  0.14898842  0.82725210  0.36644055    -0.73300
O1369       O  0.12998625  0.93226046  0.33926285    -0.74000
O1370       O  0.12424685  0.80167792  0.33920541    -0.73400
O1371       O  0.15335770  0.90370804  0.36577181    -0.73900
O1372       O  0.18863358  0.86034468  0.32921772    -0.73800
O1373       O  0.19069587  0.85989831  0.27879490    -0.73600
C1374       C  0.14381218  0.92859806  0.24379576     0.78200
C1375       C  0.07884451  0.87285387  0.30719559     0.78700
C1376       C  0.13632352  0.80398233  0.24221851     0.77700
C1377       C  0.13605862  0.80407760  0.36291559     0.78100
C1378       C  0.14203985  0.92865436  0.36247709     0.79200
C1379       C  0.19986011  0.85893445  0.30480577     0.78200
C1380       C  0.08948233  0.61272357  0.06223388     0.87600
C1381       C  0.09543843  0.58406949  0.04218751    -0.52700
C1382       C  0.11608715  0.58474209  0.03033759     0.10500
C1383       C  0.12925284  0.61404507  0.04028533     0.21500
C1384       C  0.10732678  0.61308124  0.08662206    -0.53400
C1385       C  0.12837074  0.61358924  0.07586230     0.10600
C1386       C  0.09446734  0.64146396  0.04246782    -0.52900
C1387       C  0.11484196  0.64190199  0.02995881     0.11200
H1388       H  0.08387237  0.56558372  0.03665254     0.15700
H1389       H  0.14572952  0.61494026  0.03012917     0.01400
H1390       H  0.10413265  0.61185021  0.11078953     0.16000
H1391       H  0.08222895  0.65917290  0.03737420     0.15800
C1392       C  0.14757102  0.61432777  0.09904862    -0.01400
C1393       C  0.11830249  0.73135586  0.19714886    -0.27100
C1394       C  0.13561919  0.72725146  0.17654531     0.06500
C1395       C  0.15254282  0.74962652  0.17650742     0.26100
C1396       C  0.15236707  0.77490233  0.19726992    -0.11600
C1397       C  0.13538939  0.77845256  0.21865215    -0.25500
C1398       C  0.11813075  0.75650470  0.21797155     0.36900
C1399       C  0.13652447  0.69876856  0.15644211     0.06500
F1400       F  0.16979311  0.74625821  0.15737435    -0.19300
H1401       H  0.16591570  0.79122002  0.19713862     0.16300
F1402       F  0.10109412  0.75902691  0.23757412    -0.23000
H1403       H  0.10490067  0.71477885  0.19733017     0.18100
C1404       C  0.13381140  0.66843338  0.16864302     0.26100
C1405       C  0.13632834  0.64160425  0.15030711    -0.11600
C1406       C  0.14242406  0.64393954  0.11929895    -0.25600
C1407       C  0.14288413  0.67465749  0.10660044     0.37000
C1408       C  0.14047049  0.70156014  0.12507898    -0.27200
F1409       F  0.12950417  0.66453887  0.19870792    -0.19400
H1410       H  0.13349767  0.61905771  0.16093110     0.16300
F1411       F  0.14719576  0.67868977  0.07658364    -0.23100
H1412       H  0.14192634  0.72468536  0.11488827     0.18200
C1413       C  0.13769506  0.53011285  0.13338951    -0.27100
C1414       C  0.15188031  0.53053051  0.15817909     0.06500
C1415       C  0.16560910  0.55651025  0.16225051     0.26100
C1416       C  0.16435268  0.58230041  0.14253457    -0.11600
C1417       C  0.14887756  0.58356164  0.11865563    -0.25500
C1418       C  0.13634420  0.55582992  0.11355916     0.36900
C1419       C  0.15123146  0.50457218  0.18059049     0.06500
F1420       F  0.17997521  0.55719406  0.18563943    -0.19300
H1421       H  0.17497922  0.60216103  0.14678380     0.16300
F1422       F  0.12314755  0.55240699  0.08924798    -0.23000
H1423       H  0.12739013  0.50976264  0.12952927     0.18100
C1424       C  0.14081858  0.01023055  0.20862219     0.26100
C1425       C  0.13881590  0.98524830  0.22915943    -0.11600
C1426       C  0.14601449  0.95466914  0.22138147    -0.25600
C1427       C  0.15533581  0.94971542  0.19236980     0.37000
C1428       C  0.16220337  0.47605873  0.17500776    -0.27200
F1429       F  0.13347639  0.03930687  0.21681027    -0.19400
H1430       H  0.13170389  0.98993653  0.25131231     0.16300
F1431       F  0.16247317  0.92068957  0.18374339    -0.23100
H1432       H  0.17199943  0.47328249  0.15462766     0.18200
C1433       C  0.13829510  0.76275501  0.43967570    -0.27100
C1434       C  0.13072961  0.73240805  0.43223438     0.06500
C1435       C  0.12539314  0.72574241  0.40171249     0.26100
C1436       C  0.12720651  0.74908024  0.37942178    -0.11600
C1437       C  0.13463218  0.77948648  0.38685763    -0.25500
C1438       C  0.14032221  0.78605080  0.41730036     0.36900
C1439       C  0.12717381  0.70847255  0.45651699     0.06500
F1440       F  0.11861876  0.69650522  0.39330812    -0.19300
H1441       H  0.12291571  0.74324237  0.35618285     0.16300
F1442       F  0.14708281  0.81528796  0.42573928    -0.23000
H1443       H  0.14810878  0.76304067  0.95992103     0.18100
C1444       C  0.14596833  0.69710371  0.97687847     0.26100
C1445       C  0.14119525  0.67643837  0.00096091    -0.11600
C1446       C  0.12035298  0.66315541  0.00397474    -0.25600
C1447       C  0.10470472  0.66975171  0.98142376     0.37000
C1448       C  0.10731854  0.69224415  0.45785291    -0.27200
F1449       F  0.16627031  0.70948484  0.97471575    -0.19400
H1450       H  0.15371449  0.67118609  0.01745865     0.16300
F1451       F  0.08488954  0.65562736  0.98171739    -0.23100
H1452       H  0.09474278  0.69677137  0.44121620     0.18200
C1453       C  0.13102655  0.00501441  0.40576991    -0.27100
C1454       C  0.13997048  0.49620226  0.43499583     0.06500
C1455       C  0.14948999  0.46642752  0.43976874     0.26100
C1456       C  0.15234999  0.94753974  0.41466103    -0.11600
C1457       C  0.14241363  0.95353125  0.38645086    -0.25500
C1458       C  0.13204900  0.98289736  0.38210145     0.36900
C1459       C  0.13637380  0.51862169  0.46062329     0.06500
F1460       F  0.15747056  0.45855642  0.46748433    -0.19300
H1461       H  0.16055167  0.92532042  0.41871798     0.16300
F1462       F  0.12248814  0.99016036  0.35522372    -0.23000
H1463       H  0.12231769  0.02692679  0.40218391     0.18100
C1464       C  0.13840050  0.55038290  0.95662962     0.26100
C1465       C  0.13382112  0.57165984  0.98036394    -0.11600
C1466       C  0.12367463  0.56130672  0.00723885    -0.25600
C1467       C  0.11917797  0.52890226  0.01053192     0.37000
C1468       C  0.12409847  0.50762447  0.98703749    -0.27200
F1469       F  0.15245188  0.56151634  0.43304344    -0.19400
H1470       H  0.13730540  0.59647369  0.97715474     0.16300
F1471       F  0.10976928  0.51778688  0.03630995    -0.23100
H1472       H  0.12001809  0.48293301  0.98977775     0.18200
C1473       C  0.30014461  0.88453499  0.34137057    -0.27100
C1474       C  0.29351512  0.86100795  0.32110413     0.06500
C1475       C  0.30908247  0.83953786  0.31005746     0.26100
C1476       C  0.33065501  0.84078198  0.32064842    -0.11600
C1477       C  0.33755256  0.86393195  0.34193215    -0.25500
C1478       C  0.32136748  0.88571111  0.35234224     0.36900
C1479       C  0.26980647  0.85702817  0.31557938     0.06500
F1480       F  0.30314283  0.81612187  0.29063545    -0.19300
H1481       H  0.34191288  0.82266781  0.31310776     0.16300
F1482       F  0.32453608  0.90587931  0.37590929    -0.23000
H1483       H  0.28826513  0.90097909  0.35057229     0.18100
C1484       C  0.25570460  0.85378357  0.34060893     0.26100
C1485       C  0.23322402  0.85361875  0.33657601    -0.11600
C1486       C  0.22401795  0.85664654  0.30747891    -0.25600
C1487       C  0.23815672  0.85852950  0.28211183     0.37000
C1488       C  0.26088278  0.85869844  0.28622896    -0.27200
F1489       F  0.26372853  0.85122640  0.36924947    -0.19400
H1490       H  0.22299437  0.85164379  0.35659139     0.16300
F1491       F  0.23012848  0.86111602  0.25350179    -0.23100
H1492       H  0.27147562  0.86121559  0.26664534     0.18200
C1493       C  0.24956492  0.58160638  0.06274003    -0.27100
C1494       C  0.23816846  0.60933879  0.05561353     0.06500
C1495       C  0.25002095  0.63603261  0.04638290     0.26100
C1496       C  0.27278764  0.63555942  0.04611219    -0.11600
C1497       C  0.28433021  0.60842405  0.05486188    -0.25500
C1498       C  0.27240754  0.58102044  0.06234171     0.36900
C1499       C  0.21461657  0.61225441  0.06309151     0.06500
F1500       F  0.23951736  0.66305185  0.03874354    -0.19300
H1501       H  0.28139912  0.65680612  0.03969087     0.16300
F1502       F  0.28271118  0.55416099  0.07095411    -0.23000
H1503       H  0.24080835  0.56091651  0.07037003     0.18100
C1504       C  0.19887870  0.59083165  0.05258160     0.26100
C1505       C  0.17724300  0.59294309  0.06300351    -0.11600
C1506       C  0.17056492  0.61656426  0.08400939    -0.25600
C1507       C  0.18709486  0.63727359  0.09497573     0.37000
C1508       C  0.20833286  0.63545535  0.08399512    -0.27200
F1509       F  0.20448589  0.56751324  0.03276745    -0.19400
H1510       H  0.16578441  0.57512256  0.05558737     0.16300
F1511       F  0.18404177  0.65712751  0.11887563    -0.23100
H1512       H  0.22043421  0.65115074  0.09362441     0.18200
C1513       C  0.36991863  0.71662849  0.42407325    -0.27100
C1514       C  0.36671856  0.74832668  0.93564913     0.06500
C1515       C  0.36718371  0.75495800  0.96708143     0.26100
C1516       C  0.36851265  0.73052132  0.98822670    -0.11600
C1517       C  0.37003813  0.69896689  0.97865384    -0.25500
C1518       C  0.37045813  0.69220970  0.94726879     0.36900
C1519       C  0.36348002  0.77394878  0.41075125     0.06500
F1520       F  0.36662521  0.78519301  0.97742414    -0.19300
H1521       H  0.36848500  0.73630138  0.01227047     0.16300
F1522       F  0.37157779  0.66190527  0.93722325    -0.23000
H1523       H  0.37025975  0.71058669  0.40010920     0.18100
C1524       C  0.37753307  0.77772355  0.38575950     0.26100
C1525       C  0.37589664  0.80439435  0.36716607    -0.11600
C1526       C  0.36074613  0.82886469  0.37360421    -0.25600
C1527       C  0.34523120  0.82299342  0.39684448     0.37000
C1528       C  0.34672546  0.79610448  0.41506422    -0.27200
F1529       F  0.39365438  0.75652824  0.38013519    -0.19400
H1530       H  0.38714797  0.80580229  0.34831969     0.16300
F1531       F  0.32949926  0.84441448  0.40359432    -0.23100
H1532       H  0.33508354  0.79312659  0.43338620     0.18200
C1533       C  0.38476695  0.49876321  0.43136925    -0.27100
C1534       C  0.37241662  0.97171266  0.93836138     0.06500
C1535       C  0.35872928  0.97138753  0.96405086     0.26100
C1536       C  0.35938621  0.49565954  0.98446325    -0.11600
C1537       C  0.37291215  0.52204370  0.98007402    -0.25500
C1538       C  0.38644207  0.52263860  0.95403272     0.36900
C1539       C  0.37224455  0.94391618  0.41567262     0.06500
F1540       F  0.34507891  0.94676319  0.96906681    -0.19300
H1541       H  0.34868876  0.49432580  0.00404940     0.16300
F1542       F  0.39979922  0.54748214  0.94864276    -0.23000
H1543       H  0.39502067  0.49970780  0.41130021     0.18100
C1544       C  0.36846667  0.94730548  0.38436194     0.26100
C1545       C  0.36575103  0.92055110  0.36582532    -0.11600
C1546       C  0.36583338  0.88961885  0.37809606    -0.25600
C1547       C  0.37232872  0.88670973  0.40898326     0.37000
C1548       C  0.37499314  0.91345601  0.42732722    -0.27200
F1549       F  0.36618971  0.97638451  0.37195087    -0.19400
H1550       H  0.36220100  0.92397203  0.34193941     0.16300
F1551       F  0.37726922  0.85855653  0.42171502    -0.23100
H1552       H  0.37923464  0.91033011  0.45103542     0.18200
C1553       C  0.38839925  0.00393410  0.18827656    -0.27100
C1554       C  0.37066977  0.98409280  0.19428944     0.06500
C1555       C  0.35353597  0.48590466  0.17599052     0.26100
C1556       C  0.35287577  0.50716210  0.15171660    -0.11600
C1557       C  0.37062804  0.52708558  0.14574980    -0.25500
C1558       C  0.38933882  0.52480488  0.16407710     0.36900
C1559       C  0.37196221  0.96197092  0.22025448     0.06500
F1560       F  0.33576445  0.46798253  0.18201470    -0.19300
H1561       H  0.33825573  0.50862928  0.13809154     0.16300
F1562       F  0.40715830  0.54286410  0.15860194    -0.23000
H1563       H  0.40291456  0.00275047  0.20216216     0.18100
C1564       C  0.36797002  0.92954564  0.21631522     0.26100
C1565       C  0.37187635  0.90857394  0.24013256    -0.11600
C1566       C  0.38057469  0.91935278  0.26778710    -0.25600
C1567       C  0.38350565  0.95190403  0.27229271     0.37000
C1568       C  0.37912851  0.97298919  0.24873999    -0.27200
F1569       F  0.36193950  0.91779771  0.18882348    -0.19400
H1570       H  0.36941225  0.88362606  0.23619555     0.16300
F1571       F  0.39107328  0.96321425  0.29919655    -0.23100
H1572       H  0.38315939  0.49782958  0.25266685     0.18200
C1573       C  0.38454734  0.79838298  0.20840929    -0.27100
C1574       C  0.37430129  0.77015462  0.21703783     0.06500
C1575       C  0.36962463  0.76525260  0.24809874     0.26100
C1576       C  0.37506873  0.78821023  0.26988297    -0.11600
C1577       C  0.38562593  0.81605449  0.26116240    -0.25500
C1578       C  0.39040852  0.82096095  0.23026960     0.36900
C1579       C  0.37019109  0.74508244  0.19385863     0.06500
F1580       F  0.35988282  0.73821269  0.25737665    -0.19300
H1581       H  0.37150399  0.78394833  0.29366669     0.16300
F1582       F  0.40120512  0.84727304  0.22133012    -0.23000
H1583       H  0.38873794  0.80242858  0.18478929     0.18100
C1584       C  0.35899384  0.75150332  0.16664825     0.26100
C1585       C  0.35691093  0.72813053  0.14403319    -0.11600
C1586       C  0.36615731  0.69801301  0.14794611    -0.25600
C1587       C  0.37680063  0.69149258  0.17569006     0.37000
C1588       C  0.37872095  0.71473860  0.19821311    -0.27200
F1589       F  0.35013427  0.78041843  0.16190547    -0.19400
H1590       H  0.34857101  0.73390477  0.12311309     0.16300
F1591       F  0.38572472  0.66273455  0.18108434    -0.23100
H1592       H  0.38754717  0.70925954  0.21882641     0.18200
C1593       C  0.97112712  0.86376707  0.32885929    -0.27100
C1594       C  0.98683766  0.88611010  0.33743677     0.06500
C1595       C  0.98023471  0.91172376  0.35581232     0.26100
C1596       C  0.95860919  0.91445742  0.36578310    -0.11600
C1597       C  0.94286912  0.89158135  0.35799228    -0.25500
C1598       C  0.94955601  0.86628649  0.33902594     0.36900
C1599       C  0.01007990  0.88219655  0.32785974     0.06500
F1600       F  0.99488454  0.93359692  0.36526490    -0.19300
H1601       H  0.95476153  0.93436295  0.38014019     0.16300
F1602       F  0.93520458  0.84354815  0.33060589    -0.23000
H1603       H  0.97557484  0.84410922  0.31426584     0.18100
C1604       C  0.02079672  0.85292322  0.33066189     0.26100
C1605       C  0.04284762  0.84985450  0.32286376    -0.11600
C1606       C  0.05489436  0.87587956  0.31238699    -0.25600
C1607       C  0.04403897  0.90502500  0.30901045     0.37000
C1608       C  0.02192244  0.90797685  0.31649169    -0.27200
F1609       F  0.01025540  0.82752503  0.34225784    -0.19400
H1610       H  0.05067782  0.82719572  0.32603179     0.16300
F1611       F  0.05475285  0.93085459  0.29867704    -0.23100
H1612       H  0.01404080  0.93062115  0.31349008     0.18200
C1613       C  0.87096608  0.97338792  0.29681739    -0.27100
C1614       C  0.85737021  0.97260802  0.27133091     0.06500
C1615       C  0.84438129  0.94583350  0.26657184     0.26100
C1616       C  0.84577470  0.91996547  0.28621582    -0.11600
C1617       C  0.86075930  0.91921618  0.31066993    -0.25500
C1618       C  0.87256875  0.94750851  0.31642037     0.36900
C1619       C  0.85768710  0.99911644  0.24914959     0.06500
F1620       F  0.83034688  0.94460297  0.24280977    -0.19300
H1621       H  0.83570391  0.89961917  0.28142651     0.16300
F1622       F  0.88553604  0.95124536  0.34094493    -0.23000
H1623       H  0.88085130  0.99403870  0.30127785     0.18100
C1624       C  0.85652469  0.53064444  0.25795328     0.26100
C1625       C  0.85770967  0.55544229  0.23689585    -0.11600
C1626       C  0.86252940  0.54947981  0.20606660    -0.25600
C1627       C  0.86563256  0.51791299  0.19664537     0.37000
C1628       C  0.86222369  0.99298192  0.21835225    -0.27200
F1629       F  0.85196266  0.53739748  0.28751722    -0.19400
H1630       H  0.85517606  0.57941420  0.24482268     0.16300
F1631       F  0.86977464  0.51079343  0.16703563    -0.23100
H1632       H  0.86483202  0.96896217  0.21059006     0.18200
C1633       C  0.86293477  0.75430719  0.25531441    -0.27100
C1634       C  0.87955344  0.77689736  0.25283399     0.06500
C1635       C  0.89568066  0.77263472  0.23037344     0.26100
C1636       C  0.89440412  0.74724900  0.20987443    -0.11600
C1637       C  0.87717235  0.72536069  0.21146341    -0.25500
C1638       C  0.86171697  0.72882628  0.23503061     0.36900
C1639       C  0.87890732  0.80544665  0.27273965     0.06500
F1640       F  0.91268443  0.79293935  0.22823276    -0.19300
H1641       H  0.90680549  0.74504203  0.19242018     0.16300
F1642       F  0.84495952  0.70824395  0.23805057    -0.23000
H1643       H  0.85033417  0.75699831  0.27243766     0.18100
C1644       C  0.87994793  0.83593846  0.26037462     0.26100
C1645       C  0.87588340  0.86246767  0.27862678    -0.11600
C1646       C  0.86963993  0.85944005  0.30952766    -0.25600
C1647       C  0.87087325  0.82882664  0.32228385     0.37000
C1648       C  0.87510437  0.80234751  0.30405916    -0.27200
F1649       F  0.88365917  0.84019109  0.23021110    -0.19400
H1650       H  0.87742489  0.88522992  0.26794003     0.16300
F1651       F  0.86649356  0.82422440  0.35213678    -0.23100
H1652       H  0.87471535  0.77915880  0.31431702     0.18200
C1653       C  0.86299772  0.98637954  0.44190769    -0.27100
C1654       C  0.87191258  0.98397898  0.47127238     0.06500
C1655       C  0.88626362  0.95877584  0.47738750     0.26100
C1656       C  0.89174640  0.93709583  0.45451926    -0.11600
C1657       C  0.88334022  0.94021155  0.42508192    -0.25500
C1658       C  0.86889972  0.96503228  0.41888440     0.36900
C1659       C  0.86716936  0.00851311  0.49487858     0.06500
F1660       F  0.89592376  0.95593253  0.50497344    -0.19300
H1661       H  0.90314348  0.91829126  0.45952899     0.16300
F1662       F  0.86134716  0.96972350  0.39034243    -0.23000
H1663       H  0.85173576  0.00521270  0.43655870     0.18100
C1664       C  0.86866092  0.54060237  0.48808827     0.26100
C1665       C  0.86572147  0.56366408  0.51061478    -0.11600
C1666       C  0.86146918  0.55499274  0.54077475    -0.25600
C1667       C  0.85907252  0.52287657  0.54791325     0.37000
C1668       C  0.86324518  0.99971442  0.52523046    -0.27200
F1669       F  0.87466383  0.54987818  0.45976495    -0.19400
H1670       H  0.86801740  0.58826674  0.50483359     0.16300
F1671       F  0.85391378  0.51813795  0.07170098    -0.23100
H1672       H  0.86217262  0.97504393  0.53135874     0.18200
C1673       C  0.89447854  0.75501837  0.50746321    -0.27100
C1674       C  0.87700002  0.77511481  0.50020399     0.06500
C1675       C  0.85711640  0.77124990  0.51592082     0.26100
C1676       C  0.85493883  0.74768892  0.53811835    -0.11600
C1677       C  0.87267842  0.72830894  0.54561592    -0.25500
C1678       C  0.89249067  0.73229499  0.53020614     0.36900
C1679       C  0.87995366  0.79957963  0.47614442     0.06500
F1680       F  0.84000385  0.79068508  0.51046625    -0.19300
H1681       H  0.83949968  0.74381861  0.04794398     0.16300
F1682       F  0.90975300  0.71338498  0.53643818    -0.23000
H1683       H  0.90976219  0.75664268  0.49523725     0.18100
C1684       C  0.89931465  0.81724279  0.47471999     0.26100
C1685       C  0.90327400  0.83744085  0.45035179    -0.11600
C1686       C  0.88795958  0.84120161  0.42693026    -0.25600
C1687       C  0.86787216  0.82548542  0.42943649     0.37000
C1688       C  0.86410457  0.80444882  0.45352766    -0.27200
F1689       F  0.91447341  0.81517285  0.49703418    -0.19400
H1690       H  0.91844170  0.85043022  0.44994812     0.16300
F1691       F  0.85212610  0.82960119  0.40828693    -0.23100
H1692       H  0.84901293  0.79130761  0.45396935     0.18200
C1693       C  0.98354619  0.59322076  0.09575083    -0.27100
C1694       C  0.99758661  0.61904994  0.09940894     0.06500
C1695       C  0.98909145  0.64757398  0.11081952     0.26100
C1696       C  0.96687833  0.65030335  0.11781773    -0.11600
C1697       C  0.95262921  0.62456684  0.11394113    -0.25500
C1698       C  0.96136898  0.59573166  0.10318508     0.36900
C1699       C  0.02092232  0.61638138  0.09058215     0.06500
F1700       F  0.00216030  0.67314396  0.11422880    -0.19300
H1701       H  0.96078549  0.67281365  0.12596730     0.16300
F1702       F  0.94845884  0.57012912  0.09899704    -0.23000
H1703       H  0.98980498  0.57102185  0.08704073     0.18100
C1704       C  0.03747430  0.62024191  0.11219728     0.26100
C1705       C  0.05943164  0.61840788  0.10354804    -0.11600
C1706       C  0.06555611  0.61288103  0.07293322    -0.25600
C1707       C  0.04867672  0.60951857  0.05130293     0.37000
C1708       C  0.02674262  0.61076515  0.06016589    -0.27200
F1709       F  0.03238781  0.62579891  0.14182461    -0.19400
H1710       H  0.07129253  0.62237539  0.12113220     0.16300
F1711       F  0.05337162  0.60559784  0.02130929    -0.23100
H1712       H  0.01421345  0.60813710  0.04305663     0.18200
C1713       C  0.75005623  0.65914317  0.09761723    -0.27100
C1714       C  0.73720563  0.64716031  0.12125913     0.06500
C1715       C  0.74733358  0.63804179  0.14849639     0.26100
C1716       C  0.77015071  0.63968537  0.15132747    -0.11600
C1717       C  0.78318645  0.65024617  0.12694209    -0.25500
C1718       C  0.77268870  0.66085484  0.10034310     0.36900
C1719       C  0.71376789  0.64116828  0.11536431     0.06500
F1720       F  0.73528042  0.62627528  0.17174470    -0.19300
H1721       H  0.77766111  0.63148929  0.17210398     0.16300
F1722       F  0.78428899  0.67244540  0.07655998    -0.23000
H1723       H  0.74251991  0.66636192  0.07650133     0.18100
C1724       C  0.69754985  0.66264949  0.12419592     0.26100
C1725       C  0.67613272  0.65905698  0.11361748    -0.11600
C1726       C  0.67002760  0.63375306  0.09414434    -0.25600
C1727       C  0.68688892  0.61225507  0.08558362     0.37000
C1728       C  0.70810532  0.61587718  0.09650155    -0.27200
F1729       F  0.70265746  0.68809928  0.14160649    -0.19400
H1730       H  0.66429918  0.67699672  0.11971945     0.16300
F1731       F  0.68325772  0.59239643  0.56037399    -0.23100
H1732       H  0.71988252  0.60199483  0.58439380     0.18200
C1733       C  0.48420506  0.62706012  0.10569769    -0.27100
C1734       C  0.49911972  0.62163256  0.08207969     0.06500
C1735       C  0.49121297  0.61339219  0.05308056     0.26100
C1736       C  0.46865935  0.61156380  0.04783147    -0.11600
C1737       C  0.45367620  0.61746093  0.07152175    -0.25500
C1738       C  0.46186710  0.62499467  0.10069333     0.36900
C1739       C  0.52271848  0.62555305  0.08841815     0.06500
F1740       F  0.50523714  0.60796064  0.02971369    -0.19300
H1741       H  0.46293527  0.60549569  0.02527638     0.16300
F1742       F  0.44837565  0.63089833  0.12459683    -0.23000
H1743       H  0.48993239  0.63304532  0.12829354     0.18100
C1744       C  0.53029030  0.65367874  0.10162283     0.26100
C1745       C  0.55187722  0.65641352  0.11113024    -0.11600
C1746       C  0.56658934  0.63092654  0.10825056    -0.25600
C1747       C  0.55920237  0.60341949  0.09310813     0.37000
C1748       C  0.53749160  0.60075031  0.08354072    -0.27200
F1749       F  0.51669528  0.67871249  0.10537237    -0.19400
H1750       H  0.55667756  0.67892167  0.12035090     0.16300
F1751       F  0.57290660  0.57876040  0.08809716    -0.23100
H1752       H  0.53204931  0.57891542  0.07318095     0.18200
C1753       C  0.75991287  0.85525306  0.37772299    -0.27100
C1754       C  0.77112126  0.88325078  0.37080698     0.06500
C1755       C  0.75906108  0.91132362  0.36774444     0.26100
C1756       C  0.73637376  0.91116481  0.37104382    -0.11600
C1757       C  0.72503114  0.88301019  0.37703292    -0.25500
C1758       C  0.73718114  0.85501121  0.38081244     0.36900
C1759       C  0.79487051  0.88231923  0.36350992     0.06500
F1760       F  0.76899629  0.93860863  0.35960660    -0.19300
H1761       H  0.72760405  0.93306500  0.36773983     0.16300
F1762       F  0.72716872  0.82721185  0.38694161    -0.23000
H1763       H  0.76879138  0.83330134  0.38012007     0.18100
C1764       C  0.80955452  0.90465914  0.37518039     0.26100
C1765       C  0.83116274  0.90546034  0.36477023    -0.11600
C1766       C  0.83933567  0.88326079  0.34351841    -0.25600
C1767       C  0.82409584  0.86087528  0.33187679     0.37000
C1768       C  0.80256410  0.86026700  0.34225441    -0.27200
F1769       F  0.80297809  0.92607566  0.39636797    -0.19400
H1770       H  0.84150728  0.92419687  0.37281830     0.16300
F1771       F  0.82872761  0.84145143  0.30813085    -0.23100
H1772       H  0.79140988  0.84352126  0.33206388     0.18200
C1773       C  0.65200078  0.02102439  0.47915455    -0.27100
C1774       C  0.63631811  0.52209694  0.50253960     0.06500
C1775       C  0.62249509  0.99498853  0.50548790     0.26100
C1776       C  0.62304845  0.97054483  0.48372685    -0.11600
C1777       C  0.63799980  0.97119587  0.45928452    -0.25500
C1778       C  0.65274732  0.99666286  0.45765169     0.36900
C1779       C  0.63515485  0.54962628  0.52345628     0.06500
F1780       F  0.60886632  0.49362539  0.52985077    -0.19300
H1781       H  0.61154345  0.95133348  0.48579257     0.16300
F1782       F  0.66779524  0.99849875  0.43504909    -0.23000
H1783       H  0.66324481  0.04057167  0.47698190     0.18100
C1784       C  0.64058182  0.54732064  0.55435473     0.26100
C1785       C  0.64274768  0.57474060  0.57213271    -0.11600
C1786       C  0.64061437  0.60516918  0.55918290    -0.25600
C1787       C  0.63216581  0.60660294  0.52912810     0.37000
C1788       C  0.63014434  0.57928248  0.51151772    -0.27200
F1789       F  0.64426765  0.01794090  0.56781607    -0.19400
H1790       H  0.64689164  0.57171193  0.09545185     0.16300
F1791       F  0.62485573  0.63380821  0.51664912    -0.23100
H1792       H  0.62475690  0.58130313  0.48815092     0.18200
C1793       C  0.64000700  0.73984090  0.46848784    -0.27100
C1794       C  0.63963097  0.74641119  0.49986931     0.06500
C1795       C  0.63750628  0.77808254  0.50949626     0.26100
C1796       C  0.63577144  0.80241486  0.48806434    -0.11600
C1797       C  0.63677098  0.79571330  0.45677066    -0.25500
C1798       C  0.63878155  0.76413339  0.44717996     0.36900
C1799       C  0.64201722  0.71997559  0.52191323     0.06500
F1800       F  0.63819824  0.78572484  0.53949756    -0.19300
H1801       H  0.63458065  0.82662942  0.49591881     0.16300
F1802       F  0.63938929  0.75671032  0.41709570    -0.23000
H1803       H  0.64135013  0.71572483  0.46039335     0.18100
C1804       C  0.62810343  0.71682923  0.54715922     0.26100
C1805       C  0.62989429  0.69076234  0.56647751    -0.11600
C1806       C  0.64472819  0.66589715  0.56022459    -0.25600
C1807       C  0.65935177  0.67022645  0.53555213     0.37000
C1808       C  0.65792602  0.69673326  0.51686246    -0.27200
F1809       F  0.61201454  0.73815312  0.55247612    -0.19400
H1810       H  0.61917699  0.69030103  0.58595690     0.16300
F1811       F  0.67685322  0.64822979  0.03026476    -0.23100
H1812       H  0.66911038  0.69876704  0.49786726     0.18200
C1813       C  0.63206205  0.52877414  0.18911566    -0.27100
C1814       C  0.63554415  0.53919507  0.21918650     0.06500
C1815       C  0.63513145  0.57182292  0.22534449     0.26100
C1816       C  0.63017307  0.59322336  0.20221422    -0.11600
C1817       C  0.62569536  0.58257714  0.17262804    -0.25500
C1818       C  0.62694292  0.55021055  0.16609448     0.36900
C1819       C  0.63741088  0.51586858  0.24427738     0.06500
F1820       F  0.63798004  0.58289888  0.25408659    -0.19300
H1821       H  0.62850655  0.61795094  0.20789655     0.16300
F1822       F  0.62257700  0.53930177  0.13768005    -0.23000
H1823       H  0.63449358  0.00357797  0.18143050     0.18100
C1824       C  0.62441861  0.98902233  0.24405500     0.26100
C1825       C  0.62534162  0.96741795  0.26783443    -0.11600
C1826       C  0.64109267  0.97007193  0.29086495    -0.25600
C1827       C  0.65622356  0.99501155  0.28925307     0.37000
C1828       C  0.65367854  0.51855026  0.26661039    -0.27200
F1829       F  0.60822048  0.98611040  0.22329695    -0.19400
H1830       H  0.61336718  0.94869555  0.26832655     0.16300
F1831       F  0.67185218  0.99851612  0.31075024    -0.23100
H1832       H  0.66557068  0.53734043  0.26533286     0.18200
C1833       C  0.62190915  0.74055887  0.19205632    -0.27100
C1834       C  0.63716163  0.73330510  0.21473102     0.06500
C1835       C  0.64770458  0.70379390  0.21350632     0.26100
C1836       C  0.64203572  0.68150430  0.19128067    -0.11600
C1837       C  0.62570843  0.68802002  0.16983404    -0.25500
C1838       C  0.61661182  0.71861360  0.16948803     0.36900
C1839       C  0.64113653  0.75610035  0.24006088     0.06500
F1840       F  0.66341617  0.69634265  0.23389405    -0.19300
H1841       H  0.65010740  0.65886445  0.19165455     0.16300
F1842       F  0.60262573  0.72760698  0.14730076    -0.23000
H1843       H  0.61352407  0.76304576  0.19216760     0.18100
C1844       C  0.64258754  0.78875501  0.23448785     0.26100
C1845       C  0.64370035  0.81017499  0.25868162    -0.11600
C1846       C  0.64405683  0.79960684  0.28888131    -0.25600
C1847       C  0.64372454  0.76701661  0.29458014     0.37000
C1848       C  0.64198239  0.74553598  0.27038339    -0.27200
F1849       F  0.64290702  0.80008435  0.20565311    -0.19400
H1850       H  0.64422551  0.83520486  0.25379920     0.16300
F1851       F  0.64377581  0.75601741  0.32354188    -0.23100
H1852       H  0.64046693  0.72066728  0.27550129     0.18200
C1853       C  0.51775142  0.89123203  0.37652933    -0.27100
C1854       C  0.51029402  0.87448161  0.35084147     0.06500
C1855       C  0.52562445  0.85895605  0.33223556     0.29300
C1856       C  0.54784335  0.86093692  0.33865222    -0.11600
C1857       C  0.55542386  0.87804885  0.36398572    -0.25500
C1858       C  0.54010446  0.89296775  0.38314851     0.36900
C1859       C  0.48669324  0.87353711  0.34302705     0.06500
F1860       F  0.51909575  0.84142263  0.30800051    -0.19300
H1861       H  0.55921736  0.84887058  0.32370561     0.16300
F1862       F  0.54674402  0.91029770  0.40743952    -0.23000
H1863       H  0.50628139  0.90359298  0.39108882     0.18100
C1864       C  0.47097145  0.86457457  0.36456186     0.26100
C1865       C  0.44893728  0.86271421  0.35654423    -0.11600
C1866       C  0.44186310  0.86994774  0.32676801    -0.25600
C1867       C  0.45790289  0.87839708  0.30517211     0.37000
C1868       C  0.47986142  0.88050186  0.31334360    -0.27200
F1869       F  0.47699783  0.85633174  0.39313425    -0.19400
H1870       H  0.43787726  0.85459948  0.37385782     0.16300
F1871       F  0.45237898  0.88464683  0.27592558    -0.23100
H1872       H  0.49163771  0.88751916  0.29628299     0.18200
Zn1873     Zn  0.65880739  0.92123010  0.87576796     1.49700
Zn1874     Zn  0.62371261  0.88185167  0.83878257     1.49400
Zn1875     Zn  0.65910199  0.84541923  0.87682931     1.49100
Zn1876     Zn  0.62016306  0.88380919  0.91160539     1.49500
O1877       O  0.64045464  0.88317051  0.87623294    -1.83000
O1878       O  0.65379689  0.94776298  0.83761856    -0.73700
O1879       O  0.63172459  0.84517640  0.81222230    -0.73500
O1880       O  0.69110100  0.85729491  0.87830597    -0.73000
O1881       O  0.62838100  0.92026269  0.81370618    -0.73700
O1882       O  0.69095711  0.90964686  0.87691940    -0.73300
O1883       O  0.65473031  0.81704549  0.83987338    -0.73900
O1884       O  0.62619588  0.84546197  0.93885180    -0.73300
O1885       O  0.59189556  0.87831854  0.84727293    -0.74000
O1886       O  0.65209290  0.81945715  0.91342704    -0.73400
O1887       O  0.58794974  0.88216839  0.89742143    -0.73900
O1888       O  0.62499714  0.92378085  0.93710965    -0.73800
O1889       O  0.65175203  0.94829073  0.91263010    -0.73600
C1890       C  0.64088233  0.94408111  0.81521320     0.78200
C1891       C  0.64366197  0.82097368  0.81574346     0.78700
C1892       C  0.70127574  0.88350165  0.87783118     0.77700
C1893       C  0.63909829  0.82193089  0.93593277     0.78100
C1894       C  0.57980207  0.87914248  0.87080140     0.79200
C1895       C  0.63821289  0.94691256  0.93467788     0.78200
C1896       C  0.58974284  0.63251606  0.62238658     0.87600
C1897       C  0.59643497  0.66008595  0.64341426    -0.52700
C1898       C  0.61787916  0.66040958  0.65161226     0.10500
C1899       C  0.63070996  0.63197447  0.63890486     0.21500
C1900       C  0.60592859  0.63397053  0.59587424    -0.53400
C1901       C  0.62756638  0.63402845  0.60392157     0.10600
C1902       C  0.59638681  0.60307704  0.64022052    -0.52900
C1903       C  0.61763775  0.60280043  0.64907883     0.11200
H1904       H  0.58528509  0.67717161  0.65285505     0.15700
H1905       H  0.64775310  0.63077439  0.64672680     0.01400
H1906       H  0.60064512  0.63510607  0.57234708     0.16000
H1907       H  0.58492769  0.58481353  0.64678872     0.15800
C1908       C  0.64561623  0.63485345  0.57915760    -0.01400
Zn1909     Zn  0.84891672  0.64104424  0.66336861     1.49700
Zn1910     Zn  0.88925232  0.67263375  0.62578602     1.49400
Zn1911     Zn  0.88263515  0.59836418  0.62477063     1.49100
Zn1912     Zn  0.84886825  0.64320258  0.58998263     1.49500
O1913       O  0.86728974  0.63893427  0.62621666    -1.83000
O1914       O  0.85888443  0.67835428  0.68950681    -0.73700
O1915       O  0.92000799  0.65549835  0.62052383    -0.73500
O1916       O  0.87551140  0.57172195  0.66125436    -0.73000
O1917       O  0.88718941  0.69841917  0.66452220    -0.73700
O1918       O  0.85179019  0.60018875  0.68813550    -0.73300
O1919       O  0.91541545  0.60362576  0.61963098    -0.73900
O1920       O  0.85253307  0.60548416  0.56155927    -0.73300
O1921       O  0.88449682  0.70215931  0.59024558    -0.74000
O1922       O  0.87317667  0.57307091  0.58873380    -0.73400
O1923       O  0.85566256  0.68281960  0.56616181    -0.73900
O1924       O  0.81740189  0.64613115  0.60216631    -0.73800
O1925       O  0.81635066  0.64650467  0.65263780    -0.73600
C1926       C  0.87421040  0.69861722  0.68726082     0.78200
C1927       C  0.92776721  0.62770172  0.61769628     0.78700
C1928       C  0.86275475  0.57485650  0.68398324     0.77700
C1929       C  0.86213919  0.57905910  0.56505430     0.78100
C1930       C  0.87064262  0.70335475  0.56877390     0.79200
C1931       C  0.80665247  0.64767951  0.62695919     0.78200
C1932       C  0.91920169  0.89261289  0.86993544     0.87600
C1933       C  0.91404465  0.86443799  0.89039753    -0.52700
C1934       C  0.89318154  0.86350943  0.90115365     0.10500
C1935       C  0.87872900  0.89039759  0.88896809     0.21500
C1936       C  0.90243326  0.89102244  0.84438811    -0.53400
C1937       C  0.88104121  0.88963482  0.85347199     0.10600
C1938       C  0.91208470  0.92154674  0.88908409    -0.52900
C1939       C  0.89100864  0.92039589  0.89909778     0.11200
H1940       H  0.92651020  0.84804649  0.89793757     0.15700
H1941       H  0.86204602  0.88908602  0.89833852     0.01400
H1942       H  0.90716415  0.89122262  0.82054920     0.16000
H1943       H  0.92253253  0.94094212  0.89558951     0.15800
C1944       C  0.86288214  0.88707092  0.82886699    -0.01400
Zn1945     Zn  0.35100603  0.57421596  0.56072840     1.49700
Zn1946     Zn  0.35016890  0.65065856  0.55987308     1.49400
Zn1947     Zn  0.38507246  0.61379494  0.59829536     1.49100
Zn1948     Zn  0.38949362  0.61257486  0.52522364     1.49500
O1949       O  0.36886715  0.61283744  0.56048073    -1.83000
O1950       O  0.31884926  0.58504885  0.55796925    -0.73700
O1951       O  0.35389098  0.67871329  0.59803128    -0.73500
O1952       O  0.38094454  0.57489504  0.62309413    -0.73000
O1953       O  0.31828297  0.63745344  0.55650047    -0.73700
O1954       O  0.35587335  0.54712223  0.59880123    -0.73300
O1955       O  0.37739737  0.65077418  0.62486735    -0.73900
O1956       O  0.42151795  0.61542963  0.53984876    -0.73300
O1957       O  0.35777408  0.67709622  0.52308857    -0.74000
O1958       O  0.41657516  0.61713823  0.58979180    -0.73400
O1959       O  0.38334131  0.65045761  0.49761623    -0.73900
O1960       O  0.38533411  0.57241574  0.49954754    -0.73800
O1961       O  0.35869406  0.54763029  0.52400021    -0.73600
C1962       C  0.30833988  0.61096477  0.55624412     0.78200
C1963       C  0.36530040  0.67492922  0.62199080     0.78700
C1964       C  0.36885637  0.55067905  0.62116570     0.77700
C1965       C  0.42915673  0.61752928  0.56683407     0.78100
C1966       C  0.37061125  0.67418448  0.50035709     0.79200
C1967       C  0.37221813  0.54916648  0.50195847     0.78200
C1968       C  0.41811169  0.86595659  0.81795098     0.87600
C1969       C  0.41075977  0.89576494  0.80090253    -0.52700
C1970       C  0.38984845  0.89470741  0.79035757     0.10500
C1971       C  0.37763527  0.86427308  0.79891514     0.21500
C1972       C  0.40105513  0.86247783  0.84335206    -0.53400
C1973       C  0.37971424  0.86179940  0.83405264     0.10600
C1974       C  0.41315259  0.83859253  0.79588991    -0.52900
C1975       C  0.39211175  0.83764767  0.78587892     0.11200
H1976       H  0.42170284  0.91512896  0.79571839     0.15700
H1977       H  0.36084325  0.86395673  0.78989162     0.01400
H1978       H  0.40487599  0.86149491  0.86726435     0.16000
H1979       H  0.42544011  0.82194734  0.78807109     0.15800
C1980       C  0.36125693  0.86118662  0.85841344    -0.01400
Zn1981     Zn  0.15867700  0.86151458  0.76657286     1.49700
Zn1982     Zn  0.12200730  0.90286529  0.80089532     1.49400
Zn1983     Zn  0.11855371  0.82779332  0.80265586     1.49100
Zn1984     Zn  0.15580941  0.86305106  0.83993210     1.49500
O1985       O  0.13888069  0.86364521  0.80225602    -1.83000
O1986       O  0.15612514  0.90186228  0.74103144    -0.73700
O1987       O  0.08973512  0.89475577  0.80301726    -0.73500
O1988       O  0.12137211  0.80307014  0.76323175    -0.73000
O1989       O  0.12908173  0.92812784  0.76339832    -0.73700
O1990       O  0.14990735  0.82407425  0.73953842    -0.73300
O1991       O  0.08714456  0.84284991  0.80789685    -0.73900
O1992       O  0.14909291  0.82455435  0.86522489    -0.73300
O1993       O  0.12805362  0.93023981  0.83751410    -0.74000
O1994       O  0.12497092  0.79794451  0.83787143    -0.73400
O1995       O  0.15021529  0.90181361  0.86612050    -0.73900
O1996       O  0.18774048  0.86108414  0.83018381    -0.73800
O1997       O  0.19075451  0.85703060  0.77997051    -0.73600
C1998       C  0.14330853  0.92562117  0.74234173     0.78200
C1999       C  0.07830121  0.87012544  0.80722728     0.78700
C2000       C  0.13464753  0.80359504  0.74083284     0.77700
C2001       C  0.13700628  0.80048735  0.86137434     0.78100
C2002       C  0.13888371  0.92662400  0.86189048     0.79200
C2003       C  0.19946188  0.85815410  0.80634969     0.78200
C2004       C  0.08849163  0.61219065  0.56065553     0.87600
C2005       C  0.09510511  0.58406367  0.54037940    -0.52700
C2006       C  0.11589588  0.58554700  0.52907537     0.10500
C2007       C  0.12844232  0.61522965  0.53944540     0.21500
C2008       C  0.10613330  0.61297744  0.58534607    -0.53400
C2009       C  0.12727338  0.61418614  0.57490943     0.10600
C2010       C  0.09313721  0.64133175  0.54135393    -0.52900
C2011       C  0.11358455  0.64267065  0.52920580     0.11200
H2012       H  0.08391238  0.56520074  0.53454125     0.15700
H2013       H  0.14502884  0.61690310  0.52972522     0.01400
H2014       H  0.10279329  0.61151958  0.60945304     0.16000
H2015       H  0.08063859  0.65864132  0.53619478     0.15800
C2016       C  0.14627466  0.61480937  0.59840526    -0.01400
C2017       C  0.11531996  0.73221298  0.69510762    -0.27100
C2018       C  0.13197653  0.72889864  0.67334700     0.06500
C2019       C  0.14824087  0.75225650  0.67196128     0.26100
C2020       C  0.14853986  0.77706200  0.69319319    -0.11600
C2021       C  0.13265864  0.77925939  0.71627642    -0.25500
C2022       C  0.11558959  0.75696207  0.71634157     0.36900
C2023       C  0.13326410  0.69995914  0.65390308     0.06500
F2024       F  0.16460433  0.75017985  0.65121598    -0.19300
H2025       H  0.16173292  0.79394524  0.69216951     0.16300
F2026       F  0.09935719  0.75844606  0.73732935    -0.23000
H2027       H  0.10225655  0.71511013  0.69612603     0.18100
C2028       C  0.13136817  0.66979232  0.66687146     0.26100
C2029       C  0.13461824  0.64260458  0.64923319    -0.11600
C2030       C  0.14074385  0.64449001  0.61825287    -0.25600
C2031       C  0.14079185  0.67493286  0.60491069     0.37000
C2032       C  0.13735023  0.70211762  0.62256125    -0.27200
F2033       F  0.12724026  0.66644500  0.69704259    -0.19400
H2034       H  0.13234015  0.62020486  0.66036438     0.16300
F2035       F  0.14545735  0.67850102  0.57496942    -0.23100
H2036       H  0.13825035  0.72499354  0.61174661     0.18200
C2037       C  0.13530619  0.53011107  0.63097620    -0.27100
C2038       C  0.14892190  0.52970242  0.65635484     0.06500
C2039       C  0.16282367  0.55538284  0.66139590     0.26100
C2040       C  0.16205421  0.58178713  0.64224936    -0.11600
C2041       C  0.14714631  0.58373744  0.61773113    -0.25500
C2042       C  0.13476891  0.55609065  0.61146035     0.36900
C2043       C  0.14767460  0.50293803  0.67798744     0.06500
F2044       F  0.17656830  0.55545709  0.68550373    -0.19300
H2045       H  0.17264886  0.60147812  0.64734133     0.16300
F2046       F  0.12266205  0.55281021  0.58608584    -0.23000
H2047       H  0.12506476  0.50992563  0.62608674     0.18100
C2048       C  0.12810697  0.99667146  0.69453612     0.26100
C2049       C  0.12692502  0.97148256  0.71492404    -0.11600
C2050       C  0.14483579  0.95128310  0.71935477    -0.25600
C2051       C  0.16407698  0.95690674  0.70262152     0.37000
C2052       C  0.16487941  0.48128968  0.68068471    -0.27200
F2053       F  0.11049253  0.01567946  0.69102520    -0.19400
H2054       H  0.11187887  0.96779055  0.72731098     0.16300
F2055       F  0.18182344  0.93819505  0.70618880    -0.23100
H2056       H  0.17946389  0.48416583  0.66706810     0.18200
C2057       C  0.14295603  0.75749230  0.93697242    -0.27100
C2058       C  0.13392141  0.72783996  0.93026030     0.06500
C2059       C  0.12701943  0.72174574  0.90023090     0.26100
C2060       C  0.12829257  0.74524007  0.87796024    -0.11600
C2061       C  0.13676180  0.77522485  0.88487706    -0.25500
C2062       C  0.14449575  0.78087798  0.91461708     0.36900
C2063       C  0.12996166  0.70455715  0.95508539     0.06500
F2064       F  0.11898766  0.69302369  0.89236702    -0.19300
H2065       H  0.12254795  0.73994148  0.85523241     0.16300
F2066       F  0.15274593  0.80943222  0.92258450    -0.23000
H2067       H  0.14209753  0.76872328  0.46304900     0.18100
C2068       C  0.14312475  0.70187033  0.47861192     0.26100
C2069       C  0.13899276  0.67986150  0.50175657    -0.11600
C2070       C  0.11876118  0.66459441  0.50367217    -0.25600
C2071       C  0.10320348  0.67037953  0.48079245     0.37000
C2072       C  0.10941653  0.69041618  0.95767940    -0.27200
F2073       F  0.16278669  0.71638149  0.47760981    -0.19400
H2074       H  0.15150829  0.67514896  0.51838137     0.16300
F2075       F  0.08408657  0.65436338  0.48005980    -0.23100
H2076       H  0.09673300  0.69571713  0.94142346     0.18200
C2077       C  0.12170427  0.99926553  0.90751466    -0.27100
C2078       C  0.13611157  0.49584894  0.93388892     0.06500
C2079       C  0.14944340  0.46905475  0.93654742     0.26100
C2080       C  0.15146011  0.94953799  0.91167764    -0.11600
C2081       C  0.13789962  0.95145015  0.88597492    -0.25500
C2082       C  0.12295573  0.97673683  0.88418141     0.36900
C2083       C  0.13329455  0.51821242  0.95968183     0.06500
F2084       F  0.16120117  0.46421876  0.96219831    -0.19300
H2085       H  0.16310607  0.93047235  0.91381125     0.16300
F2086       F  0.10902482  0.97930457  0.86040620    -0.23000
H2087       H  0.10983734  0.01812259  0.90593177     0.18100
C2088       C  0.14182655  0.55075897  0.45805003     0.26100
C2089       C  0.13601774  0.57217280  0.48108149    -0.11600
C2090       C  0.12450647  0.56199711  0.50689422    -0.25600
C2091       C  0.11994176  0.52960551  0.51004388     0.37000
C2092       C  0.12582300  0.50824907  0.48712183    -0.27200
F2093       F  0.14751560  0.56123308  0.93052440    -0.19400
H2094       H  0.13968603  0.59695442  0.47805683     0.16300
F2095       F  0.10952309  0.51852519  0.53507161    -0.23100
H2096       H  0.12135060  0.48367384  0.48958477     0.18200
C2097       C  0.30034117  0.88437563  0.84508407    -0.27100
C2098       C  0.29322208  0.86015318  0.82587429     0.06500
C2099       C  0.30863357  0.83830438  0.81495685     0.26100
C2100       C  0.33050055  0.84021328  0.82425617    -0.11600
C2101       C  0.33783500  0.86392677  0.84461087    -0.25500
C2102       C  0.32181319  0.88589987  0.85515018     0.36900
C2103       C  0.26937727  0.85678794  0.82015849     0.06500
F2104       F  0.30233811  0.81391400  0.79692572    -0.19300
H2105       H  0.34163109  0.82199198  0.81672788     0.16300
F2106       F  0.32546130  0.90683828  0.87793128    -0.23000
H2107       H  0.28875820  0.90141747  0.85398381     0.18100
C2108       C  0.25468913  0.85778458  0.84479062     0.26100
C2109       C  0.23227035  0.85768218  0.83984927    -0.11600
C2110       C  0.22362365  0.85643182  0.81024801    -0.25600
C2111       C  0.23829843  0.85421902  0.78550382     0.37000
C2112       C  0.26094922  0.85438594  0.79050950    -0.27200
F2113       F  0.26202054  0.85892505  0.87389538    -0.19400
H2114       H  0.22164389  0.85895047  0.85952984     0.16300
F2115       F  0.23087788  0.85247966  0.75650396    -0.23100
H2116       H  0.27190483  0.85358380  0.77116530     0.18200
C2117       C  0.24911975  0.58342641  0.56045109    -0.27100
C2118       C  0.23778011  0.61201483  0.55699870     0.06500
C2119       C  0.24978602  0.63949614  0.55053640     0.26100
C2120       C  0.27255383  0.63869766  0.54942219    -0.11600
C2121       C  0.28404353  0.61049080  0.55451689    -0.25500
C2122       C  0.27196702  0.58253564  0.55912152     0.36900
C2123       C  0.21406403  0.61414983  0.56443576     0.06500
F2124       F  0.23947905  0.66745827  0.54613668    -0.19300
H2125       H  0.28121198  0.66050317  0.54524314     0.16300
F2126       F  0.28214664  0.55451714  0.56372720    -0.23000
H2127       H  0.24035382  0.56198378  0.56576815     0.18100
C2128       C  0.19853223  0.59283733  0.55298510     0.26100
C2129       C  0.17670982  0.59438324  0.56286627    -0.11600
C2130       C  0.16955075  0.61741372  0.58414539    -0.25600
C2131       C  0.18580548  0.63807510  0.59601842     0.37000
C2132       C  0.20727637  0.63665425  0.58579013    -0.27200
F2133       F  0.20447531  0.57022293  0.53261311    -0.19400
H2134       H  0.16545225  0.57667315  0.55464948     0.16300
F2135       F  0.18213465  0.65777533  0.61988090    -0.23100
H2136       H  0.21908810  0.65225810  0.59621454     0.18200
C2137       C  0.36863206  0.71670627  0.92598619    -0.27100
C2138       C  0.36665469  0.74814947  0.43335517     0.06500
C2139       C  0.36621824  0.75503388  0.46474198     0.26100
C2140       C  0.36781660  0.73086927  0.48615444    -0.11600
C2141       C  0.37053646  0.69934011  0.47696549    -0.25500
C2142       C  0.37207036  0.69243906  0.44564928     0.36900
C2143       C  0.36384295  0.77445562  0.91337019     0.06500
F2144       F  0.36450224  0.78528442  0.47480320    -0.19300
H2145       H  0.36700637  0.73685969  0.51012709     0.16300
F2146       F  0.37460457  0.66221813  0.43587238    -0.23000
H2147       H  0.36816285  0.71088099  0.90198063     0.18100
C2148       C  0.37746140  0.77755954  0.88782350     0.26100
C2149       C  0.37594373  0.80419974  0.86915389    -0.11600
C2150       C  0.36134847  0.82924581  0.87603206    -0.25600
C2151       C  0.34633898  0.82421514  0.90009938     0.37000
C2152       C  0.34772861  0.79740721  0.91841420    -0.27200
F2153       F  0.39299249  0.75561326  0.88162130    -0.19400
H2154       H  0.38675955  0.80505159  0.84977773     0.16300
F2155       F  0.33126611  0.84639188  0.90751213    -0.23100
H2156       H  0.33646939  0.79503057  0.93728101     0.18200
C2157       C  0.38633033  0.49737556  0.93317914    -0.27100
C2158       C  0.37231069  0.97148985  0.43687504     0.06500
C2159       C  0.35903491  0.97112048  0.46298069     0.26100
C2160       C  0.35893111  0.49663878  0.48372078    -0.11600
C2161       C  0.37232950  0.52308582  0.47896889    -0.25500
C2162       C  0.38522435  0.52396355  0.45230668     0.36900
C2163       C  0.37271957  0.94418978  0.91720021     0.06500
F2164       F  0.34547444  0.94648683  0.46838864    -0.19300
H2165       H  0.34865561  0.49512264  0.50372834     0.16300
F2166       F  0.39825992  0.54902940  0.44636501    -0.23000
H2167       H  0.39698068  0.49816937  0.91350981     0.18100
C2168       C  0.36897784  0.94752471  0.88587904     0.26100
C2169       C  0.36652172  0.92071865  0.86733269    -0.11600
C2170       C  0.36678961  0.88985064  0.87969267    -0.25600
C2171       C  0.37369286  0.88709267  0.91044389     0.37000
C2172       C  0.37596942  0.91385962  0.92883930    -0.27200
F2173       F  0.36640771  0.97657355  0.87351659    -0.19400
H2174       H  0.36283911  0.92403054  0.84347176     0.16300
F2175       F  0.37941043  0.85911892  0.92293401    -0.23100
H2176       H  0.38032861  0.91087168  0.95252466     0.18200
C2177       C  0.38859609  0.00429783  0.68902929    -0.27100
C2178       C  0.37131165  0.98347360  0.69454155     0.06500
C2179       C  0.35333550  0.48503003  0.67603830     0.26100
C2180       C  0.35252910  0.50636126  0.65169109    -0.11600
C2181       C  0.37009196  0.52670852  0.64573826    -0.25500
C2182       C  0.38869953  0.52479794  0.66436795     0.36900
C2183       C  0.37291436  0.96090760  0.72034206     0.06500
F2184       F  0.33576006  0.46663139  0.68185834    -0.19300
H2185       H  0.33795787  0.50747551  0.63793647     0.16300
F2186       F  0.40639013  0.54314966  0.65903158    -0.23000
H2187       H  0.40293255  0.00379468  0.70330728     0.18100
C2188       C  0.36993966  0.92828689  0.71584920     0.26100
C2189       C  0.37398074  0.90708793  0.73954400    -0.11600
C2190       C  0.38165550  0.91784763  0.76781145    -0.25600
C2191       C  0.38381371  0.95047411  0.77273967     0.37000
C2192       C  0.37938203  0.97174918  0.74925443    -0.27200
F2193       F  0.36467954  0.91668098  0.68799425    -0.19400
H2194       H  0.37232012  0.88205918  0.73518395     0.16300
F2195       F  0.39058373  0.96170340  0.80008995    -0.23100
H2196       H  0.38268805  0.49644475  0.75344055     0.18200
C2197       C  0.38630154  0.79706721  0.70915029    -0.27100
C2198       C  0.37305116  0.77109221  0.71624214     0.06500
C2199       C  0.36545864  0.76780498  0.74638103     0.26100
C2200       C  0.37127285  0.78986990  0.76886570    -0.11600
C2201       C  0.38491275  0.81532718  0.76179159    -0.25500
C2202       C  0.39235092  0.81880836  0.73171252     0.36900
C2203       C  0.36889636  0.74626741  0.69277594     0.06500
F2204       F  0.35254801  0.74312446  0.75410588    -0.19300
H2205       H  0.36567455  0.78652480  0.79199961     0.16300
F2206       F  0.40575430  0.84303311  0.72427051    -0.23000
H2207       H  0.39262944  0.79988759  0.68629217     0.18100
C2208       C  0.36052033  0.75375449  0.66387937     0.26100
C2209       C  0.35853913  0.73032686  0.64128506    -0.11600
C2210       C  0.36519530  0.69908677  0.64686184    -0.25600
C2211       C  0.37304249  0.69159060  0.67612891     0.37000
C2212       C  0.37475072  0.71488028  0.69868920    -0.27200
F2213       F  0.35436472  0.78375914  0.65744855    -0.19400
H2214       H  0.35243476  0.73687542  0.61910220     0.16300
F2215       F  0.37937143  0.66176127  0.68300864    -0.23100
H2216       H  0.38138966  0.70853883  0.72063451     0.18200
C2217       C  0.97078928  0.86345567  0.82872504    -0.27100
C2218       C  0.98673414  0.88493713  0.83831138     0.06500
C2219       C  0.98050185  0.90991836  0.85767116     0.26100
C2220       C  0.95886262  0.91307476  0.86738229    -0.11600
C2221       C  0.94278018  0.89127511  0.85823153    -0.25500
C2222       C  0.94922128  0.86630292  0.83869457     0.36900
C2223       C  0.00986804  0.88068519  0.82877137     0.06500
F2224       F  0.99553066  0.93061824  0.86834300    -0.19300
H2225       H  0.95529784  0.93219605  0.88283952     0.16300
F2226       F  0.93463621  0.84424160  0.82942689    -0.23000
H2227       H  0.97507507  0.84418982  0.81355505     0.18100
C2228       C  0.02029742  0.85121866  0.83146687     0.26100
C2229       C  0.04226756  0.84773670  0.82346797    -0.11600
C2230       C  0.05444611  0.87353954  0.81280800    -0.25600
C2231       C  0.04383364  0.90292841  0.80960348     0.37000
C2232       C  0.02182920  0.90629992  0.81741460    -0.27200
F2233       F  0.00952031  0.82604179  0.84308889    -0.19400
H2234       H  0.04991132  0.82492788  0.82651369     0.16300
F2235       F  0.05467689  0.92862476  0.79921386    -0.23100
H2236       H  0.01411262  0.92910657  0.81467087     0.18200
C2237       C  0.87143038  0.97186027  0.79531053    -0.27100
C2238       C  0.85797552  0.97081858  0.76973508     0.06500
C2239       C  0.84507652  0.94398196  0.76491281     0.26100
C2240       C  0.84625573  0.91838281  0.78487112    -0.11600
C2241       C  0.86112258  0.91789317  0.80946353    -0.25500
C2242       C  0.87292140  0.94621519  0.81509551     0.36900
C2243       C  0.85814652  0.99739304  0.74778856     0.06500
F2244       F  0.83133732  0.94245567  0.74083173    -0.19300
H2245       H  0.83619115  0.89798687  0.78020632     0.16300
F2246       F  0.88570045  0.95031804  0.83973107    -0.23000
H2247       H  0.88124625  0.99258642  0.79976187     0.18100
C2248       C  0.85438236  0.52810224  0.75683248     0.26100
C2249       C  0.85556902  0.55337111  0.73635198    -0.11600
C2250       C  0.86049005  0.54804750  0.70549487    -0.25600
C2251       C  0.86337789  0.51669105  0.69529941     0.37000
C2252       C  0.86275256  0.99155966  0.71697274    -0.27200
F2253       F  0.84996385  0.53416337  0.78657397    -0.19400
H2254       H  0.85313537  0.57718791  0.74476727     0.16300
F2255       F  0.86743718  0.51029152  0.66551227    -0.23100
H2256       H  0.86556013  0.96765490  0.70901172     0.18200
C2257       C  0.86321296  0.75238734  0.75540591    -0.27100
C2258       C  0.87950355  0.77538766  0.75210911     0.06500
C2259       C  0.89514472  0.77139479  0.72892771     0.26100
C2260       C  0.89365780  0.74595228  0.70855211    -0.11600
C2261       C  0.87671617  0.72369353  0.71094362    -0.25500
C2262       C  0.86181208  0.72680448  0.73524122     0.36900
C2263       C  0.87901321  0.80404323  0.77194114     0.06500
F2264       F  0.91189687  0.79201219  0.72593085    -0.19300
H2265       H  0.90565850  0.74402087  0.69053073     0.16300
F2266       F  0.84543008  0.70574681  0.73913825    -0.23000
H2267       H  0.85099399  0.75481227  0.77309402     0.18100
C2268       C  0.87992821  0.83449463  0.75946529     0.26100
C2269       C  0.87607777  0.86107754  0.77771941    -0.11600
C2270       C  0.86999340  0.85821017  0.80871890    -0.25600
C2271       C  0.87152691  0.82769345  0.82159156     0.37000
C2272       C  0.87561001  0.80111635  0.80338247    -0.27200
F2273       F  0.88328684  0.83869821  0.72921300    -0.19400
H2274       H  0.87763916  0.88375950  0.76689720     0.16300
F2275       F  0.86759286  0.82326316  0.85157257    -0.23100
H2276       H  0.87542661  0.77798937  0.81377543     0.18200
C2277       C  0.86233793  0.98910295  0.93864380    -0.27100
C2278       C  0.87145102  0.98766367  0.96796615     0.06500
C2279       C  0.88634859  0.96320604  0.97431231     0.26100
C2280       C  0.89183585  0.94094869  0.95199535    -0.11600
C2281       C  0.88298189  0.94270957  0.92272144    -0.25500
C2282       C  0.86826253  0.96712888  0.91607753     0.36900
C2283       C  0.86618486  0.01201743  0.99161709     0.06500
F2284       F  0.89646588  0.96158746  0.00166935    -0.19300
H2285       H  0.90355930  0.92267347  0.95732628     0.16300
F2286       F  0.86041660  0.97080903  0.88755108    -0.23000
H2287       H  0.85080880  0.00750639  0.93303169     0.18100
C2288       C  0.86847198  0.54727381  0.98375638     0.26100
C2289       C  0.86606908  0.56973906  0.00711834    -0.11600
C2290       C  0.86181026  0.56023721  0.03711376    -0.25600
C2291       C  0.85857494  0.52804856  0.04308415     0.37000
C2292       C  0.86257989  0.00280765  0.02192433    -0.27200
F2293       F  0.87442889  0.55725074  0.95563944    -0.19400
H2294       H  0.86877101  0.59443583  0.00210404     0.16300
F2295       F  0.85464074  0.51381663  0.57687370    -0.23100
H2296       H  0.86178057  0.97803707  0.02776985     0.18200
C2297       C  0.89600510  0.76369749  0.01369668    -0.27100
C2298       C  0.87760182  0.78052549  0.00371699     0.06500
C2299       C  0.85720182  0.77330714  0.01677349     0.26100
C2300       C  0.85535728  0.74925584  0.03849813    -0.11600
C2301       C  0.87385283  0.73272602  0.04838103    -0.25500
C2302       C  0.89425878  0.74054216  0.03610157     0.36900
C2303       C  0.88000084  0.80446849  0.97901986     0.06500
F2304       F  0.83911335  0.78979046  0.00900546    -0.19300
H2305       H  0.83954169  0.74496962  0.54989210     0.16300
F2306       F  0.91244380  0.72475934  0.04475667    -0.23000
H2307       H  0.91183293  0.76791148  0.00362550     0.18100
C2308       C  0.89809653  0.82484354  0.97836665     0.26100
C2309       C  0.90192662  0.84404872  0.95319114    -0.11600
C2310       C  0.88757982  0.84424877  0.92835442    -0.25600
C2311       C  0.86850626  0.82608029  0.93003764     0.37000
C2312       C  0.86502729  0.80586862  0.95481438    -0.27200
F2313       F  0.91216727  0.82628123  0.00208414    -0.19400
H2314       H  0.91624877  0.85893566  0.95311407     0.16300
F2315       F  0.85359554  0.82694009  0.90740629    -0.23100
H2316       H  0.85093872  0.79057221  0.95450655     0.18200
C2317       C  0.98170063  0.59244464  0.59030828    -0.27100
C2318       C  0.99620812  0.61740196  0.59561336     0.06500
C2319       C  0.98819929  0.64551682  0.60860139     0.26100
C2320       C  0.96607581  0.64855643  0.61602772    -0.11600
C2321       C  0.95145891  0.62350848  0.61103334    -0.25500
C2322       C  0.95960924  0.59525745  0.59811694     0.36900
C2323       C  0.01960560  0.61422156  0.58729686     0.06500
F2324       F  0.00170700  0.67036281  0.61337678    -0.19300
H2325       H  0.96036678  0.67065934  0.62564513     0.16300
F2326       F  0.94618182  0.57059260  0.59219335    -0.23000
H2327       H  0.98754391  0.57064846  0.58018753     0.18100
C2328       C  0.03584781  0.61649620  0.60956434     0.26100
C2329       C  0.05791820  0.61495413  0.60148956    -0.11600
C2330       C  0.06446162  0.61127457  0.57080193    -0.25600
C2331       C  0.04789249  0.60867474  0.54860382     0.37000
C2332       C  0.02583158  0.60979981  0.55685780    -0.27200
F2333       F  0.03033834  0.62029048  0.63929648    -0.19400
H2334       H  0.06950056  0.61762766  0.61962685     0.16300
F2335       F  0.05303292  0.60578915  0.51864335    -0.23100
H2336       H  0.01355033  0.60811696  0.53930006     0.18200
C2337       C  0.74972231  0.65630367  0.59433926    -0.27100
C2338       C  0.73646832  0.64785599  0.61896722     0.06500
C2339       C  0.74618434  0.64218782  0.64735963     0.26100
C2340       C  0.76899828  0.64336616  0.65041250    -0.11600
C2341       C  0.78240996  0.65021197  0.62518173    -0.25500
C2342       C  0.77231516  0.65769842  0.59730011     0.36900
C2343       C  0.71300205  0.64193797  0.61323902     0.06500
F2344       F  0.73374498  0.63396335  0.67162424    -0.19300
H2345       H  0.77618660  0.63771186  0.67218252     0.16300
F2346       F  0.78423977  0.66577813  0.57247721    -0.23000
H2347       H  0.74250880  0.66100763  0.57234939     0.18100
C2348       C  0.69670039  0.66263140  0.62346721     0.26100
C2349       C  0.67520227  0.65919285  0.61314509    -0.11600
C2350       C  0.66907394  0.63451206  0.59298759    -0.25600
C2351       C  0.68602364  0.61387679  0.58294606     0.37000
C2352       C  0.70732850  0.61747970  0.59337475    -0.27200
F2353       F  0.70178411  0.68727385  0.64193818    -0.19400
H2354       H  0.66327235  0.67660496  0.62023143     0.16300
F2355       F  0.68420222  0.58968858  0.06402725    -0.23100
H2356       H  0.72063538  0.59976127  0.08856455     0.18200
C2357       C  0.48272926  0.62922949  0.60830023    -0.27100
C2358       C  0.49817922  0.62525457  0.58507012     0.06500
C2359       C  0.49085955  0.61875958  0.55533181     0.26100
C2360       C  0.46844783  0.61647843  0.54919290    -0.11600
C2361       C  0.45298025  0.62056033  0.57259777    -0.25500
C2362       C  0.46053186  0.62723531  0.60229187     0.36900
C2363       C  0.52171381  0.62827173  0.59258650     0.06500
F2364       F  0.50531602  0.61530577  0.53213854    -0.19300
H2365       H  0.46322047  0.61143022  0.52617529     0.16300
F2366       F  0.44654199  0.63212118  0.62584376    -0.23000
H2367       H  0.48787987  0.63379673  0.63145652     0.18100
C2368       C  0.52905346  0.65377292  0.61030746     0.26100
C2369       C  0.55072577  0.65555302  0.61955424    -0.11600
C2370       C  0.56590497  0.63173723  0.61173341    -0.25600
C2371       C  0.55855225  0.60663389  0.59311978     0.37000
C2372       C  0.53675790  0.60496431  0.58375248    -0.27200
F2373       F  0.51524215  0.67737069  0.61862933    -0.19400
H2374       H  0.55501815  0.67605007  0.63266117     0.16300
F2375       F  0.57245401  0.58340685  0.58420488    -0.23100
H2376       H  0.53151164  0.58495027  0.57025145     0.18200
C2377       C  0.76046237  0.85599976  0.87904302    -0.27100
C2378       C  0.77157224  0.88354490  0.87043226     0.06500
C2379       C  0.75948466  0.91141652  0.86612849     0.26100
C2380       C  0.73682356  0.91142733  0.86972296    -0.11600
C2381       C  0.72556568  0.88362917  0.87727564    -0.25500
C2382       C  0.73776545  0.85593635  0.88249573     0.36900
C2383       C  0.79526411  0.88226572  0.86296548     0.06500
F2384       F  0.76935863  0.93822836  0.85651946    -0.19300
H2385       H  0.72799656  0.93307216  0.86536203     0.16300
F2386       F  0.72782440  0.82859861  0.89047944    -0.23000
H2387       H  0.76938571  0.83425276  0.88253686     0.18100
C2388       C  0.80989362  0.90524354  0.87347436     0.26100
C2389       C  0.83142516  0.90565309  0.86289633    -0.11600
C2390       C  0.83960802  0.88251501  0.84261847    -0.25600
C2391       C  0.82446542  0.85940247  0.83216786     0.37000
C2392       C  0.80295553  0.85916876  0.84273102    -0.27200
F2393       F  0.80333809  0.92766959  0.89367931    -0.19400
H2394       H  0.84173378  0.92480276  0.87002919     0.16300
F2395       F  0.82914766  0.83876427  0.80942464    -0.23100
H2396       H  0.79182137  0.84182205  0.83347962     0.18200
C2397       C  0.65019120  0.02453873  0.97540559    -0.27100
C2398       C  0.63679404  0.52215225  0.00137343     0.06500
C2399       C  0.62399428  0.99561160  0.00547623     0.26100
C2400       C  0.62453827  0.97099390  0.98390793    -0.11600
C2401       C  0.63789109  0.97289312  0.95780279    -0.25500
C2402       C  0.65082344  0.00009667  0.95397353     0.36900
C2403       C  0.63602899  0.54976615  0.02240787     0.06500
F2404       F  0.60957915  0.49367257  0.02921313    -0.19300
H2405       H  0.61435583  0.95051475  0.98756921     0.16300
F2406       F  0.66395289  0.00352487  0.92930992    -0.23000
H2407       H  0.66022841  0.04518336  0.97170454     0.18100
C2408       C  0.64034818  0.54713304  0.05365985     0.26100
C2409       C  0.64289382  0.57439899  0.07162166    -0.11600
C2410       C  0.64204673  0.60499428  0.05872674    -0.25600
C2411       C  0.63467759  0.60693806  0.02812388     0.37000
C2412       C  0.63240924  0.57979087  0.01030985    -0.27200
F2413       F  0.64358337  0.01861766  0.06639456    -0.19400
H2414       H  0.64762926  0.57239111  0.59567477     0.16300
F2415       F  0.62848170  0.63449806  0.01522374    -0.23100
H2416       H  0.62779833  0.58224246  0.98665726     0.18200
C2417       C  0.64278534  0.74054444  0.97040017    -0.27100
C2418       C  0.64263848  0.74715268  0.00174818     0.06500
C2419       C  0.64056119  0.77880756  0.01142863     0.26100
C2420       C  0.63855750  0.80312628  0.99002031    -0.11600
C2421       C  0.63917298  0.79636013  0.95871968    -0.25500
C2422       C  0.64123931  0.76478546  0.94911979     0.36900
C2423       C  0.64482274  0.72065000  0.02367593     0.06500
F2424       F  0.64141084  0.78639099  0.04143798    -0.19300
H2425       H  0.63735592  0.82734329  0.99786338     0.16300
F2426       F  0.64150899  0.75729806  0.91904202    -0.23000
H2427       H  0.64408538  0.71641706  0.96231686     0.18100
C2428       C  0.63040128  0.71719064  0.04828359     0.26100
C2429       C  0.63153839  0.69059608  0.06697133    -0.11600
C2430       C  0.64641595  0.66572789  0.06085925    -0.25600
C2431       C  0.66171113  0.67052254  0.03709906     0.37000
C2432       C  0.66076899  0.69740337  0.01883364    -0.27200
F2433       F  0.61443106  0.73873316  0.05350117    -0.19400
H2434       H  0.62030497  0.68978708  0.08584952     0.16300
F2435       F  0.67434050  0.64788072  0.52828935    -0.23100
H2436       H  0.67231173  0.69971993  0.00029594     0.18200
C2437       C  0.63088107  0.52483454  0.68649231    -0.27100
C2438       C  0.63526980  0.53454177  0.71656258     0.06500
C2439       C  0.63579026  0.56707720  0.72319105     0.26100
C2440       C  0.63108022  0.58911570  0.70058913    -0.11600
C2441       C  0.62579738  0.57930945  0.67104246    -0.25500
C2442       C  0.62590275  0.54697856  0.66399636     0.36900
C2443       C  0.63741308  0.51084431  0.74131708     0.06500
F2444       F  0.63928519  0.57759177  0.75198096    -0.19300
H2445       H  0.63012879  0.61378119  0.70675730     0.16300
F2446       F  0.62058654  0.53683294  0.63563791    -0.23000
H2447       H  0.63079835  0.99964531  0.68041233     0.18100
C2448       C  0.62220743  0.98607441  0.74400236     0.26100
C2449       C  0.62356844  0.96483899  0.76807073    -0.11600
C2450       C  0.64008545  0.96740538  0.79005512    -0.25600
C2451       C  0.65550100  0.99180911  0.78711817     0.37000
C2452       C  0.65378632  0.51366391  0.76349030    -0.27200
F2453       F  0.60534409  0.98338495  0.72427757    -0.19400
H2454       H  0.61135053  0.94651668  0.76965392     0.16300
F2455       F  0.67184940  0.99518889  0.80755961    -0.23100
H2456       H  0.66573443  0.53235514  0.76196111     0.18200
C2457       C  0.62337177  0.73803448  0.69423054    -0.27100
C2458       C  0.63835427  0.73048129  0.71713494     0.06500
C2459       C  0.64872690  0.70079846  0.71596698     0.26100
C2460       C  0.64309033  0.67864908  0.69349632    -0.11600
C2461       C  0.62689523  0.68552960  0.67197265    -0.25500
C2462       C  0.61814209  0.71630717  0.67151661     0.36900
C2463       C  0.64221860  0.75335163  0.74245632     0.06500
F2464       F  0.66419628  0.69307841  0.73661987    -0.19300
H2465       H  0.65100883  0.65588204  0.69366670     0.16300
F2466       F  0.60443171  0.72561840  0.64910909    -0.23000
H2467       H  0.61510681  0.76061234  0.69426395     0.18100
C2468       C  0.64379940  0.78596546  0.73667453     0.26100
C2469       C  0.64457748  0.80760359  0.76069728    -0.11600
C2470       C  0.64448882  0.79733475  0.79097891    -0.25600
C2471       C  0.64394314  0.76479711  0.79696486     0.37000
C2472       C  0.64256598  0.74305802  0.77288942    -0.27200
F2473       F  0.64454523  0.79706206  0.70776739    -0.19400
H2474       H  0.64523840  0.83258287  0.75561154     0.16300
F2475       F  0.64344133  0.75413144  0.82603681    -0.23100
H2476       H  0.64091941  0.71823711  0.77814294     0.18200
C2477       C  0.51816727  0.88981437  0.87740837    -0.27100
C2478       C  0.51083487  0.87200681  0.85224547     0.06500
C2479       C  0.52633595  0.85558355  0.83462339     0.29300
C2480       C  0.54850027  0.85777116  0.84135963    -0.11600
C2481       C  0.55592337  0.87590327  0.86611344    -0.25500
C2482       C  0.54047785  0.89164773  0.88442722     0.36900
C2483       C  0.48720980  0.87074802  0.84408574     0.06500
F2484       F  0.52006133  0.83692746  0.81105111    -0.19300
H2485       H  0.55997929  0.84506797  0.82707330     0.16300
F2486       F  0.54696205  0.90989062  0.90818229    -0.23000
H2487       H  0.50664819  0.90294267  0.89124136     0.18100
C2488       C  0.47119869  0.86455891  0.86613473     0.26100
C2489       C  0.44915741  0.86274807  0.85808021    -0.11600
C2490       C  0.44226237  0.86718310  0.82765938    -0.25600
C2491       C  0.45855604  0.87282390  0.80558354     0.37000
C2492       C  0.48056322  0.87488535  0.81376746    -0.27200
F2493       F  0.47688139  0.85914583  0.89547960    -0.19400
H2494       H  0.43797887  0.85721924  0.87613452     0.16300
F2495       F  0.45320062  0.87648417  0.77586279    -0.23100
H2496       H  0.49248251  0.87986915  0.79623973     0.18200
loop_ 
_geom_bond_atom_site_label_1 
_geom_bond_atom_site_label_2 
_geom_bond_distance 
_geom_bond_site_symmetry_2 
_ccdc_geom_bond_type 
Zn1           O5   1.969       .  S
Zn1           O6   2.048       .  S
Zn1          O10   2.036       .  S
Zn1          O17   2.018       .  S
Zn2           O5   1.946       .  S
Zn2           O7   2.002       .  S
Zn2           O9   1.997       .  S
Zn2          O13   2.002       .  S
Zn3           O5   1.966       .  S
Zn3           O8   2.037       .  S
Zn3          O11   2.033       .  S
Zn3          O14   2.008       .  S
Zn4           O5   1.989       .  S
Zn4          O12   2.055       .  S
Zn4          O15   2.071       .  S
Zn4          O16   2.045       .  S
O6           C18   1.275       .  A
O7           C19   1.271       .  A
O8           C20   1.276       .  A
O9           C18   1.272       .  A
O10          C20   1.276       .  A
O11          C19   1.274       .  A
O12          C21   1.278       .  A
O13          C22   1.272       .  A
O14          C21   1.274       .  A
O15          C22   1.279       .  A
O16          C23   1.278       .  A
O17          C23   1.276       .  A
C18         C578   1.489       .  S
C19         C598   1.477       .  S
C20         C509   1.495       .  S
C21         C549   1.482       .  S
C22         C609   1.489       .  S
C23         C529   1.492       .  S
C24          C25   1.546       .  S
C24          C30   1.535       .  S
C24          C28   1.530       .  S
C24         C498   1.541       .  S
C25          H32   1.079       .  S
C25          C26   1.370       .  D
C26          C27   1.542       .  S
C26         C589   1.498       .  S
C27          C31   1.538       .  S
C27          C29   1.552       .  S
C27          H33   1.103       .  S
C28          H34   1.086       .  S
C28          C29   1.376       .  D
C29          C36   1.553       .  S
C30          H35   1.086       .  S
C30          C31   1.364       .  D
C31         C569   1.478       .  S
C36         C478   1.569       .  S
C36        C1162   1.566       .  S
C36        C1182   1.560       .  S
Zn37         O41   1.984       .  S
Zn37         O42   2.048       .  S
Zn37         O46   2.053       .  S
Zn37         O53   2.065       .  S
Zn38         O41   1.968       .  S
Zn38         O43   2.031       .  S
Zn38         O45   2.022       .  S
Zn38         O49   2.030       .  S
Zn39         O41   1.964       .  S
Zn39         O44   2.025       .  S
Zn39         O47   2.044       .  S
Zn39         O50   2.016       .  S
Zn40         O41   1.971       .  S
Zn40         O48   2.043       .  S
Zn40         O51   2.031       .  S
Zn40         O52   2.015       .  S
O42          C54   1.279       .  A
O43          C55   1.275       .  A
O44          C56   1.275       .  A
O45          C54   1.276       .  A
O46          C56   1.278       .  A
O47          C55   1.276       .  A
O48          C57   1.276       .  A
O49          C58   1.275       .  A
O50          C57   1.274       .  A
O51          C58   1.274       .  A
O52          C59   1.275       .  A
O53          C59   1.279       .  A
C54         C389   1.493       .  S
C55         C449   1.495       .  S
C56         C378   1.491       .  S
C57        C1042   1.481       .  S
C58        C1053   1.482       .  S
C59         C469   1.494       .  S
C60          C61   1.533       .  S
C60          C66   1.545       .  S
C60          C64   1.528       .  S
C60         C349   1.540       .  S
C61          H68   1.087       .  S
C61          C62   1.367       .  D
C62          C63   1.544       .  S
C62         C438   1.494       .  S
C63          C67   1.541       .  S
C63          C65   1.566       .  S
C63          H69   1.105       .  S
C64          H70   1.086       .  S
C64          C65   1.375       .  D
C65          C72   1.562       .  S
C66          H71   1.081       .  S
C66          C67   1.367       .  D
C67         C409   1.480       .  S
C72         C369   1.569       .  S
C72         C398   1.566       .  S
C72         C518   1.565       .  S
Zn73         O77   1.970       .  S
Zn73         O78   2.024       .  S
Zn73         O82   2.038       .  S
Zn73         O89   2.012       .  S
Zn74         O77   1.972       .  S
Zn74         O79   2.068       .  S
Zn74         O81   2.047       .  S
Zn74         O85   2.019       .  S
Zn75         O77   1.938       .  S
Zn75         O80   1.983       .  S
Zn75         O83   1.996       .  S
Zn75         O86   1.982       .  S
Zn76         O77   1.992       .  S
Zn76         O84   2.083       .  S
Zn76         O87   2.051   1_554  S
Zn76         O88   2.052       .  S
O78          C90   1.274       .  A
O79          C91   1.278       .  A
O80          C92   1.269       .  A
O81          C90   1.278       .  A
O82          C92   1.275       .  A
O83          C91   1.270       .  A
O84          C93   1.280       .  A
O85          C94   1.276       .  A
O86          C93   1.269       .  A
O87          C94   1.279   1_556  A
O88          C95   1.278       .  A
O89          C95   1.275       .  A
C90         C249   1.493       .  S
C91         C338   1.493       .  S
C92         C309   1.480       .  S
C93         C489   1.495       .  S
C94         C269   1.482   1_554  S
C95         C289   1.493   1_554  S
C96          C97   1.537       .  S
C96         C102   1.537       .  S
C96         C100   1.537       .  S
C96         C618   1.540       .  S
C97         H104   1.086       .  S
C97          C98   1.365       .  D
C98          C99   1.536       .  S
C98         C318   1.479       .  S
C99         C103   1.541       .  S
C99         C101   1.550       .  S
C99         H105   1.105       .  S
C100        H106   1.080       .  S
C100        C101   1.378       .  D
C101        C108   1.555       .  S
C102        H107   1.086       .  S
C102        C103   1.365       .  D
C103        C329   1.481       .  S
C108        C229   1.567       .  S
C108        C278   1.562       .  S
C108        C298   1.565       .  S
Zn109       O113   1.979       .  S
Zn109       O114   2.047       .  S
Zn109       O118   2.043       .  S
Zn109       O125   2.047       .  S
Zn110       O113   1.961       .  S
Zn110       O115   2.031       .  S
Zn110       O117   2.021       .  S
Zn110       O121   2.016       .  S
Zn111       O113   1.967       .  S
Zn111       O116   2.034       .  S
Zn111       O119   2.042       .  S
Zn111       O122   2.035       .  S
Zn112       O113   1.960       .  S
Zn112       O120   2.013       .  S
Zn112       O123   2.019       .  S
Zn112       O124   2.005       .  S
O114        C126   1.277       .  A
O115        C127   1.275       .  A
O116        C128   1.277       .  A
O117        C126   1.276       .  A
O118        C128   1.278       .  A
O119        C127   1.277       .  A
O120        C129   1.272       .  A
O121        C130   1.273       .  A
O122        C129   1.275       .  A
O123        C130   1.273       .  A
O124        C131   1.274       .  A
O125        C131   1.276       .  A
C126        C178   1.493       .  S
C127        C358   1.495       .  S
C128        C149   1.494       .  S
C129        C189   1.484       .  S
C130        C209   1.486       .  S
C131        C238   1.491       .  S
C132        C133   1.538       .  S
C132        C138   1.531       .  S
C132        C136   1.535       .  S
C132        C458   1.541       .  S
C133        H140   1.086       .  S
C133        C134   1.369       .  D
C134        C135   1.546       .  S
C134        C218   1.489       .  S
C135        C139   1.545       .  S
C135        C137   1.563       .  S
C135        H141   1.105       .  S
C136        H142   1.080       .  S
C136        C137   1.376       .  D
C137        C144   1.560       .  S
C138        H143   1.086       .  S
C138        C139   1.366       .  D
C139        C198   1.497       .  S
C144        C158   1.565       .  S
C144        C169   1.565       .  S
C144        C258   1.560       .  S
C145        C146   1.405       .  A
C145        C150   1.401       .  A
C145        H155   1.083       .  S
C146        C151   1.492       .  S
C146        C147   1.408       .  A
C147        C148   1.403       .  A
C147        F152   1.358       .  S
C148        C149   1.409       .  A
C148        H153   1.083       .  S
C149        C150   1.412       .  A
C150        F154   1.357       .  S
C151        C156   1.405       .  A
C151        C160   1.404       .  A
C156        C157   1.397       .  A
C156        F161   1.357       .  S
C157        C158   1.416       .  A
C157        H162   1.080       .  S
C158        C159   1.418       .  A
C159        C160   1.403       .  A
C159        F163   1.356       .  S
C160        H164   1.083       .  S
C165        C166   1.399       .  A
C165        C170   1.401       .  A
C165        H175   1.084       .  S
C166        C171   1.482       .  S
C166        C167   1.400       .  A
C167        C168   1.399       .  A
C167        F172   1.357       .  S
C168        C169   1.418       .  A
C168        H173   1.081       .  S
C169        C170   1.422       .  A
C170        F174   1.351       .  S
C171        C180   1.403   1_545  A
C171       C1424   1.404       .  A
C176        C177   1.399       .  A
C176       C1419   1.402       .  A
C176        F181   1.358       .  S
C177        C178   1.409       .  A
C177        H182   1.083       .  S
C178        C179   1.413       .  A
C179       C1428   1.405       .  A
C179        F183   1.357       .  S
C180       C1427   1.403       .  A
C180        H184   1.083       .  S
C185        C186   1.405       .  A
C185        C190   1.400       .  A
C185        H819   1.083       .  S
C186        C191   1.490       .  S
C186        C187   1.409       .  A
C187        C188   1.400       .  A
C187        F192   1.357       .  S
C188        C189   1.405       .  A
C188        H193   1.083       .  S
C189        C190   1.410       .  A
C190        F194   1.358       .  S
C191        C200   1.402       .  A
C191        C820   1.410       .  A
H195        C809   1.083       .  S
C196        C197   1.406   1_556  A
C196        C815   1.411       .  A
C196        F201   1.357       .  S
C197        C198   1.406       .  A
C197        H202   1.082       .  S
C198        C199   1.412   1_554  A
C199        C824   1.395       .  A
C199        F203   1.357       .  S
C200        C823   1.395       .  A
C200        H204   1.083       .  S
C205        C210   1.398       .  A
C205       C1454   1.404       .  A
C205        H215   1.083       .  S
C206        C211   1.483   1_565  S
C206        C207   1.406       .  A
C206       C1453   1.403   1_565  A
C207       C1456   1.400       .  A
C207        F212   1.357       .  S
C208        C209   1.407       .  A
C208       C1455   1.400       .  A
C208        H213   1.083       .  S
C209        C210   1.410       .  A
C210        F214   1.357       .  S
C211        C840   1.407       .  A
C211        C844   1.403       .  A
C216        C217   1.403       .  A
C216        C835   1.406       .  A
C216        F845   1.357       .  S
C217        C218   1.406   1_556  A
C217        H222   1.083       .  S
C218        C219   1.409       .  A
C219        C220   1.399   1_554  A
C219        F223   1.357       .  S
C220        C835   1.402       .  A
C220        H224   1.083   1_545  S
F221        C840   1.357       .  S
C225        C226   1.395       .  A
C225        C230   1.392       .  A
C225        H235   1.084       .  S
C226        C231   1.487       .  S
C226        C227   1.403       .  A
C227        C228   1.407       .  A
C227        F232   1.357       .  S
C228        C229   1.418       .  A
C228        H233   1.082       .  S
C229        C230   1.429       .  A
C230        F234   1.354       .  S
C231        C236   1.406       .  A
C231        C240   1.405       .  A
C236        C237   1.393       .  A
C236        F241   1.358       .  S
C237        C238   1.406       .  A
C237        H242   1.083       .  S
C238        C239   1.413       .  A
C239        C240   1.408       .  A
C239        F243   1.357       .  S
C240        H244   1.083       .  S
C245        C246   1.404       .  A
C245        C250   1.403       .  A
C245        H255   1.083       .  S
C246        C251   1.488       .  S
C246        C247   1.407       .  A
C247        C248   1.400       .  A
C247        F252   1.358       .  S
C248        C249   1.406       .  A
C248        H253   1.083       .  S
C249        C250   1.413       .  A
C250        F254   1.357       .  S
C251        C256   1.406       .  A
C251        C260   1.395       .  A
C256        C257   1.408       .  A
C256        F261   1.357       .  S
C257        C258   1.417       .  A
C257        H262   1.083       .  S
C258        C259   1.426       .  A
C259        C260   1.391       .  A
C259        F263   1.355       .  S
C260        H264   1.084       .  S
C265        C890   1.409       .  A
C265        C894   1.406       .  A
C265        H275   1.083       .  S
C266        C895   1.494       .  S
C266        C267   1.410       .  A
C266        C889   1.409       .  A
C267        C268   1.397       .  A
C267        F272   1.358       .  S
C268        C269   1.403       .  A
C268        H273   1.083   1_556  S
C269        C270   1.407       .  A
C270        C889   1.405       .  A
C270        F274   1.357       .  S
C271        C890   1.494       .  S
C271        C276   1.405       .  A
C271        C280   1.404       .  A
C276        C277   1.401       .  A
C276        F281   1.357       .  S
C277        C278   1.419       .  A
C277        H282   1.079       .  S
C278        C279   1.418       .  A
C279        C280   1.399       .  A
C279        F283   1.356       .  S
C280        H284   1.083       .  S
C285       C2158   1.407       .  A
C285        C914   1.408   1_565  A
C285        H295   1.083       .  S
C286        C915   1.488       .  S
C286        C287   1.406       .  A
C286       C2157   1.405       .  A
C287       C1536   1.396       .  A
C287        F292   1.358       .  S
C288        C289   1.408   1_565  A
C288       C1535   1.396       .  A
C288        H293   1.083   1_556  S
C289        C290   1.412       .  A
C290        C909   1.406   1_545  A
C290        F294   1.357       .  S
C291        C910   1.489       .  S
C291        C296   1.404       .  A
C291        C300   1.401       .  A
C296        C297   1.403       .  A
C296        F301   1.357       .  S
C297        C298   1.420       .  A
C297        H302   1.083       .  S
C298        C299   1.421       .  A
C299        C300   1.397       .  A
C299        F303   1.355       .  S
C300        H304   1.084       .  S
C305        C306   1.402       .  A
C305       C1558   1.394       .  A
C305        H315   1.084       .  S
C306        C311   1.480       .  S
C306       C1555   1.407       .  A
C307        C308   1.401   1_565  A
C307       C1554   1.408       .  A
C307        F312   1.357       .  S
C308        C309   1.406       .  A
C308        H313   1.083       .  S
C309        C310   1.410       .  A
C310       C1553   1.393       .  A
C310        F314   1.358       .  S
C311        C316   1.406       .  A
C311        C320   1.405       .  A
C316        C317   1.397       .  A
C316        F321   1.357       .  S
C317        C318   1.404       .  A
C317        H322   1.082       .  S
C318        C319   1.405       .  A
C319        C320   1.397       .  A
C319        F323   1.358       .  S
C320       H1572   1.083       .  S
H324       C1568   1.083       .  S
C325        C326   1.406       .  A
C325        C330   1.401       .  A
C325        H335   1.083       .  S
C326        C331   1.491       .  S
C326        C327   1.410       .  A
C327        C328   1.404       .  A
C327        F332   1.357       .  S
C328        C329   1.402       .  A
C328        H333   1.083       .  S
C329        C330   1.404       .  A
C330        F334   1.357       .  S
C331        C336   1.409       .  A
C331        C340   1.402       .  A
C336        C337   1.405       .  A
C336        F341   1.357       .  S
C337        C338   1.407       .  A
C337        H342   1.083       .  S
C338        C339   1.414       .  A
C339        C340   1.399       .  A
C339        F343   1.358       .  S
C340        H344   1.083       .  S
C345        C346   1.404       .  A
C345        C350   1.401       .  A
C345        H355   1.083       .  S
C346        C351   1.497   1_655  S
C346        C347   1.408       .  A
C347        C348   1.403       .  A
C347        F352   1.358       .  S
C348        C349   1.412       .  A
C348        H353   1.076       .  S
C349        C350   1.414       .  A
C350        F354   1.358       .  S
C351        C356   1.409       .  A
C351        C360   1.406       .  A
C356        C357   1.402       .  A
C356        F361   1.357       .  S
C357        C358   1.408       .  A
C357        H362   1.083       .  S
C358        C359   1.412       .  A
C359        C360   1.403       .  A
C359        F363   1.357       .  S
C360        H364   1.083       .  S
C365        C366   1.401       .  A
C365        C370   1.403       .  A
C365        H375   1.083       .  S
C366        C371   1.493       .  S
C366        C367   1.404       .  A
C367        C368   1.401       .  A
C367        F372   1.357       .  S
C368        C369   1.418       .  A
C368        H373   1.082       .  S
C369        C370   1.424       .  A
C370        F374   1.352       .  S
C371        C380   1.405       .  A
C371       C1624   1.409       .  A
C376        C377   1.405       .  A
C376       C1619   1.408   1_545  A
C376        F381   1.357       .  S
C377        C378   1.407       .  A
C377        H382   1.083       .  S
C378        C379   1.411       .  A
C379       C1628   1.401   1_545  A
C379        F383   1.357       .  S
C380       C1627   1.401       .  A
C380        H384   1.083       .  S
C385        C386   1.406       .  A
C385        C390   1.400       .  A
C385        H395   1.083       .  S
C386        C391   1.492       .  S
C386        C387   1.408       .  A
C387        C388   1.402       .  A
C387        F392   1.358       .  S
C388        C389   1.410       .  A
C388        H393   1.083       .  S
C389        C390   1.410       .  A
C390        F394   1.357       .  S
C391        C396   1.406       .  A
C391        C400   1.403       .  A
C396        C397   1.400       .  A
C396        F401   1.357       .  S
C397        C398   1.417       .  A
C397        H402   1.079       .  S
C398        C399   1.417       .  A
C399        C400   1.400       .  A
C399        F403   1.352       .  S
C400        H404   1.083       .  S
C405        C406   1.406       .  A
C405        C410   1.399       .  A
C405        H415   1.083       .  S
C406        C411   1.489       .  S
C406        C407   1.410       .  A
C407        C408   1.399       .  A
C407        F412   1.358       .  S
C408        C409   1.402       .  A
C408        H413   1.084       .  S
C409        C410   1.403       .  A
C410        F414   1.354       .  S
C411        C420   1.406       .  A
C411       C1664   1.410       .  A
C416        C417   1.400       .  A
C416       C1659   1.412       .  A
C416        F421   1.357       .  S
C417        C418   1.402       .  A
C417        H422   1.083       .  S
C418        C681   1.476       .  S
C418        C419   1.406       .  A
C419       C1668   1.399   1_545  A
C419       F1047   1.358       .  S
C420       C1667   1.399       .  A
C420        H424   1.083       .  S
F423       C1043   1.358       .  S
C425        C426   1.409       .  A
C425        C430   1.397       .  A
C425        H435   1.083       .  S
C426        C431   1.497       .  S
C426        C427   1.412       .  A
C427        C428   1.405       .  A
C427        F432   1.357       .  S
C428        C429   1.405       .  A
C428       H1057   1.083       .  S
C429        C682   1.478       .  S
C429        C430   1.402       .  A
C430        F434   1.358       .  S
C431        C436   1.408       .  A
C431        C440   1.410       .  A
H433       C1052   1.083       .  S
C436        C437   1.396       .  A
C436        F441   1.358       .  S
C437        C438   1.406       .  A
C437        H442   1.083       .  S
C438        C439   1.407       .  A
C439        C440   1.406       .  A
C439        F443   1.355       .  S
C440        H444   1.082       .  S
C445        C446   1.403       .  A
C445        C450   1.403       .  A
C445        H455   1.083       .  S
C446        C451   1.486   1_655  S
C446        C447   1.405       .  A
C447        C448   1.403       .  A
C447        F452   1.358   1_655  S
C448        C449   1.410       .  A
C448        H453   1.083       .  S
C449        C450   1.413       .  A
C450        F454   1.357       .  S
C451        C456   1.403       .  A
C451        C460   1.401       .  A
C456        C457   1.403       .  A
C456        F461   1.357       .  S
C457        C458   1.415       .  A
C457        H462   1.077       .  S
C458        C459   1.416       .  A
C459        C460   1.401       .  A
C459        F463   1.358       .  S
C460        H464   1.083       .  S
C465        C466   1.400       .  A
C465        C470   1.397       .  A
C465        H475   1.084       .  S
C466        C471   1.484       .  S
C466        C467   1.406       .  A
C467        C468   1.409       .  A
C467        F472   1.357       .  S
C468        C469   1.411       .  A
C468        H473   1.083       .  S
C469        C470   1.412       .  A
C470        F474   1.357       .  S
C471        C476   1.401       .  A
C471        C480   1.396       .  A
C476        C477   1.405       .  A
C476        F481   1.357       .  S
C477        C478   1.420       .  A
C477        H482   1.083       .  S
C478        C479   1.427       .  A
C479        C480   1.398       .  A
C479       F1107   1.353       .  S
C480       H1108   1.084       .  S
F483       C1103   1.354       .  S
H484       C1104   1.084       .  S
C485        C486   1.401       .  A
C485        C490   1.395       .  A
C485        H495   1.084       .  S
C486        C491   1.492       .  S
C486        C487   1.410       .  A
C487        C488   1.409       .  A
C487        F492   1.357       .  S
C488        C489   1.409       .  A
C488        H493   1.083       .  S
C489        C490   1.414       .  A
C490        F494   1.358       .  S
C491        C496   1.405       .  A
C491        C500   1.404       .  A
C496        C497   1.398       .  A
C496        F501   1.358       .  S
C497        C498   1.412       .  A
C497        H502   1.076       .  S
C498        C499   1.416       .  A
C499        C500   1.406       .  A
C499        F503   1.358       .  S
C500        H504   1.083       .  S
C505        C506   1.406       .  A
C505        C510   1.403       .  A
C505        H515   1.083       .  S
C506        C511   1.494       .  S
C506        C507   1.408       .  A
C507        C508   1.402       .  A
C507        F512   1.357       .  S
C508        C509   1.408       .  A
C508        H513   1.083       .  S
C509        C510   1.412       .  A
C510        F514   1.357       .  S
C511        C516   1.405       .  A
C511        C520   1.400       .  A
C516        C517   1.403       .  A
C516        F521   1.357       .  S
C517        C518   1.413       .  A
C517        H522   1.076       .  S
C518        C519   1.427       .  A
C519        C520   1.400       .  A
C519        F523   1.355       .  S
C520        H524   1.083       .  S
C525        C530   1.395       .  A
C525       C1774   1.401       .  A
C525        H535   1.084       .  S
C526        C531   1.485       .  S
C526       C1773   1.402       .  A
C526       C1775   1.406   1_545  A
C527        C528   1.405       .  A
C527       C1774   1.405       .  A
C527       F1780   1.357       .  S
C528        C529   1.411       .  A
C528        H533   1.083       .  S
C529        C530   1.412       .  A
C530        F534   1.357       .  S
C531        C536   1.403       .  A
C531        C540   1.398       .  A
F532       C1775   1.357       .  S
C536        C537   1.405       .  A
C536       F1789   1.357       .  S
C537        C538   1.419       .  A
C537       H1166   1.083       .  S
C538        C660   1.564       .  S
C538        C539   1.422       .  A
C539        C540   1.397       .  A
C539        F543   1.355       .  S
C540        H544   1.084       .  S
F541       C1784   1.357       .  S
H542       C1161   1.083       .  S
C545        C546   1.406       .  A
C545        C550   1.397       .  A
C545        H555   1.083       .  S
C546        C551   1.494       .  S
C546        C547   1.412       .  A
C547        C548   1.405       .  A
C547        F552   1.357       .  S
C548        C549   1.404       .  A
C548        H553   1.083       .  S
C549        C550   1.406       .  A
C550        F554   1.358       .  S
C551        C556   1.405       .  A
C551        C560   1.403       .  A
C556        C557   1.401       .  A
C556        F561   1.357       .  S
C557        C558   1.418       .  A
C557        H562   1.078       .  S
C558        C660   1.563       .  S
C558        C559   1.419       .  A
C559        C560   1.398       .  A
C559       F1187   1.356       .  S
C560        H564   1.083       .  S
F563       C1183   1.357       .  S
C565        C566   1.409       .  A
C565        C570   1.399       .  A
C565       H1823   1.083       .  S
C566        C571   1.489       .  S
C566        C567   1.408       .  A
C567        C568   1.399       .  A
C567        F572   1.357       .  S
C568        C569   1.402       .  A
C568        H573   1.081       .  S
C569        C570   1.402       .  A
C570        F574   1.357       .  S
C571        C580   1.408       .  A
C571       C1824   1.406   1_545  A
H575       C1813   1.083       .  S
C576        C577   1.394       .  A
C576       C1819   1.406       .  A
C576        F581   1.358       .  S
C577        C578   1.407       .  A
C577        H582   1.083       .  S
C578        C579   1.411       .  A
C579       C1828   1.405       .  A
C579        F583   1.357       .  S
C580       C1827   1.405   1_545  A
C580        H584   1.083       .  S
C585        C586   1.406       .  A
C585        C590   1.397       .  A
C585        H595   1.082       .  S
C586        C591   1.494       .  S
C586        C587   1.409       .  A
C587        C588   1.402       .  A
C587        F592   1.357       .  S
C588        C589   1.407       .  A
C588        H593   1.079       .  S
C589        C590   1.411       .  A
C590        F594   1.357       .  S
C591        C596   1.410       .  A
C591        C600   1.409       .  A
C596        C597   1.397       .  A
C596        F601   1.357       .  S
C597        C598   1.403       .  A
C597        H602   1.084       .  S
C598        C599   1.405       .  A
C599        C600   1.402       .  A
C599        F603   1.358       .  S
C600        H604   1.083       .  S
C605        C606   1.409       .  A
C605        C610   1.407       .  A
C605        H615   1.083       .  S
C606        C611   1.494       .  S
C606        C607   1.407       .  A
C607        C608   1.397       .  A
C607        F612   1.358       .  S
C608        C609   1.406       .  A
C608        H613   1.083       .  S
C609        C610   1.408       .  A
C610        F614   1.357       .  S
C611        C616   1.405       .  A
C611        C620   1.405       .  A
C616        C617   1.403       .  A
C616        F621   1.357       .  S
C617        C618   1.415       .  A
C617        H622   1.077       .  S
C618        C619   1.413       .  A
C619        C620   1.399       .  A
C619        F623   1.358       .  S
C620        H624   1.083       .  S
Zn625       O629   1.967       .  S
Zn625       O630   2.043       .  S
Zn625       O634   2.029       .  S
Zn625       O641   2.020       .  S
Zn626       O629   1.945       .  S
Zn626       O631   2.002       .  S
Zn626       O633   1.995       .  S
Zn626       O637   1.997       .  S
Zn627       O629   1.967       .  S
Zn627       O632   2.031       .  S
Zn627       O635   2.035       .  S
Zn627       O638   1.999       .  S
Zn628       O629   1.989       .  S
Zn628       O636   2.056       .  S
Zn628       O639   2.076       .  S
Zn628       O640   2.052       .  S
O630        C642   1.275       .  A
O631        C643   1.271       .  A
O632        C644   1.275       .  A
O633        C642   1.271       .  A
O634        C644   1.275       .  A
O635        C643   1.273       .  A
O636        C645   1.278       .  A
O637        C646   1.272       .  A
O638        C645   1.273       .  A
O639        C646   1.280       .  A
O640        C647   1.278       .  A
O641        C647   1.276       .  A
C642       C1202   1.488       .  S
C643       C1222   1.477       .  S
C644       C1133   1.490       .  S
C645       C1173   1.479       .  S
C646       C1233   1.489       .  S
C647       C1153   1.495       .  S
C648        C649   1.544       .  S
C648        C654   1.532       .  S
C648        C652   1.531       .  S
C648       C1122   1.541       .  S
C649        H656   1.077       .  S
C649        C650   1.368       .  D
C650        C651   1.541       .  S
C650       C1213   1.498       .  S
C651        C655   1.542       .  S
C651        C653   1.553       .  S
C651        H657   1.104       .  S
C652        H658   1.086       .  S
C652        C653   1.377       .  D
C653        C660   1.553       .  S
C654        H659   1.086       .  S
C654        C655   1.364       .  D
C655       C1193   1.477       .  S
C660       C1102   1.568       .  S
Zn661       O665   1.984       .  S
Zn661       O666   2.042       .  S
Zn661       O670   2.048       .  S
Zn661       O677   2.072       .  S
Zn662       O665   1.966       .  S
Zn662       O667   2.036       .  S
Zn662       O669   2.029       .  S
Zn662       O673   2.032       .  S
Zn663       O665   1.962       .  S
Zn663       O668   2.010       .  S
Zn663       O671   2.038       .  S
Zn663       O674   2.003       .  S
Zn664       O665   1.965       .  S
Zn664       O672   2.037       .  S
Zn664       O675   2.025       .  S
Zn664       O676   2.010       .  S
O666        C678   1.278       .  A
O667        C679   1.275       .  A
O668        C680   1.273       .  A
O669        C678   1.277       .  A
O670        C680   1.278       .  A
O671        C679   1.275       .  A
O672        C681   1.275       .  A
O673        C682   1.275       .  A
O674        C681   1.271       .  A
O675        C682   1.273       .  A
O676        C683   1.274       .  A
O677        C683   1.279       .  A
C678       C1013   1.493       .  S
C679       C1073   1.496       .  S
C680       C1002   1.484       .  S
C683       C1093   1.498       .  S
C684        C685   1.531       .  S
C684        C690   1.546       .  S
C684        C688   1.527       .  S
C684        C973   1.537       .  S
C685        H692   1.087       .  S
C685        C686   1.365       .  D
C686        C687   1.545       .  S
C686       C1062   1.494       .  S
C687        C691   1.543       .  S
C687        C689   1.568       .  S
C687        H693   1.105       .  S
C688        H694   1.086       .  S
C688        C689   1.374       .  D
C689        C696   1.561       .  S
C690        H695   1.081       .  S
C690        C691   1.367       .  D
C691       C1033   1.482       .  S
C696        C993   1.570       .  S
C696       C1022   1.566       .  S
C696       C1142   1.561       .  S
Zn697       O701   1.972       .  S
Zn697       O702   2.031       .  S
Zn697       O706   2.056       .  S
Zn697       O713   2.020       .  S
Zn698       O701   1.973       .  S
Zn698       O703   2.066       .  S
Zn698       O705   2.044       .  S
Zn698       O709   2.025       .  S
Zn699       O701   1.940       .  S
Zn699       O704   1.995       .  S
Zn699       O707   2.001       .  S
Zn699       O710   1.977       .  S
Zn700       O701   1.998       .  S
Zn700       O708   2.077       .  S
Zn700       O711   2.054       .  S
Zn700       O712   2.059       .  S
O702        C714   1.276       .  A
O703        C715   1.277       .  A
O704        C716   1.270       .  A
O705        C714   1.279       .  A
O706        C716   1.276       .  A
O707        C715   1.271       .  A
O708        C717   1.280       .  A
O709        C718   1.276       .  A
O710        C717   1.269       .  A
O711        C718   1.278       .  A
O712        C719   1.279       .  A
O713        C719   1.276       .  A
C714        C873   1.494       .  S
C715        C962   1.494       .  S
C716        C933   1.489       .  S
C717       C1113   1.493       .  S
C718        C893   1.485       .  S
C719        C913   1.496       .  S
C720        C721   1.539       .  S
C720        C726   1.538       .  S
C720        C724   1.538       .  S
C720       C1242   1.546       .  S
C721        H728   1.086       .  S
C721        C722   1.367       .  D
C722        C723   1.539       .  S
C722        C942   1.485       .  S
C723        C727   1.541       .  S
C723        C725   1.552       .  S
C723        H729   1.106       .  S
C724        H730   1.079       .  S
C724        C725   1.377       .  D
C725        C732   1.558       .  S
C726        H731   1.086       .  S
C726        C727   1.366       .  D
C727        C953   1.483       .  S
C732        C853   1.570       .  S
C732        C902   1.562       .  S
C732        C922   1.567       .  S
Zn733       O737   1.982       .  S
Zn733       O738   2.055       .  S
Zn733       O742   2.047       .  S
Zn733       O749   2.071       .  S
Zn734       O737   1.962       .  S
Zn734       O739   2.023       .  S
Zn734       O741   2.022       .  S
Zn734       O745   2.019       .  S
Zn735       O737   1.970       .  S
Zn735       O740   2.028       .  S
Zn735       O743   2.039       .  S
Zn735       O746   2.041       .  S
Zn736       O737   1.957       .  S
Zn736       O744   2.019       .  S
Zn736       O747   2.025       .  S
Zn736       O748   2.010       .  S
O738        C750   1.278       .  A
O739        C751   1.274       .  A
O740        C752   1.277       .  A
O741        C750   1.276       .  A
O742        C752   1.280       .  A
O743        C751   1.276       .  A
O744        C753   1.273       .  A
O745        C754   1.273       .  A
O746        C753   1.276       .  A
O747        C754   1.275       .  A
O748        C755   1.275       .  A
O749        C755   1.279       .  A
C750        C802   1.493       .  S
C751        C982   1.491       .  S
C752        C773   1.493       .  S
C753        C813   1.491       .  S
C754        C833   1.490       .  S
C755        C862   1.498       .  S
C756        C757   1.538       .  S
C756        C762   1.532       .  S
C756        C760   1.536       .  S
C756       C1082   1.542       .  S
C757        H764   1.086       .  S
C757        C758   1.370       .  D
C758        C759   1.541       .  S
C758        C842   1.484       .  S
C759        C763   1.543       .  S
C759        C761   1.559       .  S
C759        H765   1.106       .  S
C760        H766   1.080       .  S
C760        C761   1.376       .  D
C761        C768   1.559       .  S
C762        H767   1.086       .  S
C762        C763   1.365       .  D
C763        C822   1.491       .  S
C768        C782   1.562       .  S
C768        C793   1.568       .  S
C768        C882   1.562       .  S
C769        C770   1.405       .  A
C769        C774   1.401       .  A
C769        H779   1.083       .  S
C770        C775   1.492       .  S
C770        C771   1.408       .  A
C771        C772   1.400       .  A
C771        F776   1.357       .  S
C772        C773   1.407       .  A
C772        H777   1.083       .  S
C773        C774   1.413       .  A
C774        F778   1.357       .  S
C775        C780   1.407       .  A
C775        C784   1.403       .  A
C780        C781   1.399       .  A
C780        F785   1.357       .  S
C781        C782   1.414       .  A
C781        H786   1.079       .  S
C782        C783   1.419       .  A
C783        C784   1.400       .  A
C783        F787   1.355       .  S
C784        H788   1.083       .  S
C789        C790   1.397       .  A
C789        C794   1.399       .  A
C789        H799   1.084       .  S
C790        C795   1.485       .  S
C790        C791   1.401       .  A
C791        C792   1.403       .  A
C791        F796   1.357       .  S
C792        C793   1.418       .  A
C792        H797   1.082       .  S
C793        C794   1.423       .  A
C794        F798   1.350       .  S
C795       C2048   1.404   1_545  A
C795        C804   1.404   1_545  A
C800       C2043   1.404       .  A
C800        C801   1.399       .  A
C800        F805   1.358       .  S
C801        C802   1.408       .  A
C801        H806   1.083       .  S
C802        C803   1.412       .  A
C803       C2052   1.406       .  A
C803        F807   1.357       .  S
C804       C2051   1.405       .  A
C804        H808   1.083       .  S
C809        C810   1.404       .  A
C809        C814   1.402       .  A
C810        C815   1.493       .  S
C810        C811   1.410       .  A
C811        C812   1.401       .  A
C811        F816   1.358       .  S
C812        C813   1.406       .  A
C812        H817   1.083       .  S
C813        C814   1.412       .  A
C814        F818   1.357       .  S
C815        C824   1.402       .  A
C820        C821   1.404       .  A
C820        F825   1.357       .  S
C821        C822   1.404       .  A
C821        H826   1.081       .  S
C822        C823   1.411       .  A
C823        F827   1.358       .  S
C824        H828   1.083       .  S
C829       C2078   1.402       .  A
C829        C834   1.400       .  A
C829        H839   1.083       .  S
C830        C835   1.481   1_565  S
C830       C2077   1.402       .  A
C830        C831   1.404       .  A
C831       C2080   1.401       .  A
C831        F836   1.357       .  S
C832       C2079   1.401       .  A
C832        C833   1.409       .  A
C832        H837   1.083       .  S
C833        C834   1.412       .  A
C834        F838   1.358       .  S
C840        C841   1.400       .  A
C841        C842   1.405       .  A
C841        H846   1.083       .  S
C842        C843   1.407       .  A
C843        C844   1.397       .  A
C843        F847   1.357       .  S
C844        H848   1.083   1_545  S
C849        C850   1.398       .  A
C849        C854   1.396       .  A
C849        H859   1.084       .  S
C850        C855   1.496       .  S
C850        C851   1.405       .  A
C851        C852   1.409       .  A
C851        F856   1.357       .  S
C852        C853   1.418       .  A
C852        H857   1.081       .  S
C853        C854   1.429       .  A
C854        F858   1.354       .  S
C855        C860   1.407       .  A
C855        C864   1.408       .  A
C860        C861   1.396       .  A
C860        F865   1.358       .  S
C861        C862   1.408       .  A
C861        H866   1.083       .  S
C862        C863   1.413       .  A
C863        C864   1.411       .  A
C863        F867   1.357       .  S
C864        H868   1.083       .  S
C869        C870   1.405       .  A
C869        C874   1.405       .  A
C869        H879   1.083       .  S
C870        C875   1.492       .  S
C870        C871   1.408       .  A
C871        C872   1.400       .  A
C871        F876   1.358       .  S
C872        C873   1.406       .  A
C872        H877   1.083       .  S
C873        C874   1.414       .  A
C874        F878   1.357       .  S
C875        C880   1.407       .  A
C875        C884   1.397       .  A
C880        C881   1.408       .  A
C880        F885   1.357       .  S
C881        C882   1.417       .  A
C881        H886   1.083       .  S
C882        C883   1.427       .  A
C883        C884   1.393       .  A
C883        F887   1.355       .  S
C884        H888   1.084       .  S
C889        H899   1.083       .  S
C890        C891   1.409       .  A
C891        C892   1.398       .  A
C891        F896   1.358       .  S
C892        C893   1.404       .  A
C892        H897   1.083       .  S
C893        C894   1.408       .  A
C894        F898   1.357       .  S
C895        C900   1.406       .  A
C895        C904   1.404       .  A
C900        C901   1.401       .  A
C900        F905   1.357       .  S
C901        C902   1.418       .  A
C901        H906   1.079       .  S
C902        C903   1.418       .  A
C903        C904   1.398       .  A
C903        F907   1.356       .  S
C904        H908   1.083       .  S
C909       C1534   1.405       .  A
C909        H919   1.083       .  S
C910       C1533   1.406       .  A
C910        C911   1.406       .  A
C911       C2160   1.396       .  A
C911        F916   1.358       .  S
C912       C2159   1.396       .  A
C912        C913   1.408   1_565  A
C912        H917   1.083       .  S
C913        C914   1.413       .  A
C914        F918   1.357       .  S
C915        C920   1.404       .  A
C915        C924   1.400       .  A
C920        C921   1.404       .  A
C920        F925   1.357       .  S
C921        C922   1.419       .  A
C921        H926   1.083       .  S
C922        C923   1.423       .  A
C923        C924   1.397       .  A
C923        F927   1.355       .  S
C924        H928   1.084       .  S
C929        C930   1.403       .  A
C929       C2182   1.397       .  A
C929        H939   1.083       .  S
C930        C935   1.488       .  S
C930       C2179   1.409       .  A
C931       C2178   1.409       .  A
C931        C932   1.405   1_565  A
C931        F936   1.357       .  S
C932        C933   1.407       .  A
C932        H937   1.083       .  S
C933        C934   1.411       .  A
C934       C2177   1.397       .  A
C934        F938   1.358       .  S
C935        C940   1.407       .  A
C935        C944   1.407       .  A
C940        C941   1.400       .  A
C940        F945   1.357       .  S
C941        C942   1.404       .  A
C941        H946   1.082       .  S
C942        C943   1.405       .  A
C943        C944   1.401       .  A
C943        F947   1.357       .  S
C944       H2196   1.083       .  S
H948       C2192   1.083       .  S
C949        C950   1.405       .  A
C949        C954   1.401       .  A
C949        H959   1.083       .  S
C950        C955   1.491       .  S
C950        C951   1.410       .  A
C951        C952   1.404       .  A
C951        F956   1.357       .  S
C952        C953   1.402       .  A
C952        H957   1.082       .  S
C953        C954   1.405       .  A
C954        F958   1.357       .  S
C955        C960   1.409       .  A
C955        C964   1.402       .  A
C960        C961   1.406       .  A
C960        F965   1.357       .  S
C961        C962   1.408       .  A
C961        H966   1.083       .  S
C962        C963   1.413       .  A
C963        C964   1.399       .  A
C963        F967   1.358       .  S
C964        H968   1.083       .  S
C969        C970   1.403       .  A
C969        C974   1.399       .  A
C969        H979   1.083       .  S
C970        C975   1.492   1_655  S
C970        C971   1.407       .  A
C971        C972   1.401       .  A
C971        F976   1.358       .  S
C972        C973   1.412       .  A
C972        H977   1.076       .  S
C973        C974   1.414       .  A
C974        F978   1.358       .  S
C975        C980   1.408       .  A
C975        C984   1.405       .  A
C980        C981   1.401       .  A
C980        F985   1.357       .  S
C981        C982   1.407       .  A
C981        H986   1.083       .  S
C982        C983   1.411       .  A
C983        C984   1.401       .  A
C983        F987   1.357       .  S
C984        H988   1.083       .  S
C989        C990   1.399       .  A
C989        C994   1.399       .  A
C989        H999   1.083       .  S
C990        C995   1.490       .  S
C990        C991   1.403       .  A
C991        C992   1.402       .  A
C991        F996   1.357       .  S
C992        C993   1.419       .  A
C992        H997   1.082       .  S
C993        C994   1.424       .  A
C994        F998   1.350       .  S
C995       C2248   1.409       .  A
C995       C1004   1.403       .  A
C1000      C2243   1.408   1_545  A
C1000      C1001   1.402       .  A
C1000      F1005   1.357       .  S
C1001      C1002   1.405       .  A
C1001      H1006   1.083       .  S
C1002      C1003   1.410       .  A
C1003      C2252   1.399   1_545  A
C1003      F1007   1.358       .  S
C1004      C2251   1.400       .  A
C1004      H1008   1.083       .  S
C1009      C1010   1.406       .  A
C1009      C1014   1.401       .  A
C1009      H1019   1.083       .  S
C1010      C1015   1.492       .  S
C1010      C1011   1.407       .  A
C1011      C1012   1.401       .  A
C1011      F1016   1.357       .  S
C1012      C1013   1.409       .  A
C1012      H1017   1.083       .  S
C1013      C1014   1.411       .  A
C1014      F1018   1.357       .  S
C1015      C1020   1.406       .  A
C1015      C1024   1.403       .  A
C1020      C1021   1.399       .  A
C1020      F1025   1.357       .  S
C1021      C1022   1.416       .  A
C1021      H1026   1.079       .  S
C1022      C1023   1.418       .  A
C1023      C1024   1.401       .  A
C1023      F1027   1.353       .  S
C1024      H1028   1.083       .  S
C1029      C1030   1.409       .  A
C1029      C1034   1.405       .  A
C1029      H1039   1.083       .  S
C1030      C1035   1.495       .  S
C1030      C1031   1.411       .  A
C1031      C1032   1.397       .  A
C1031      F1036   1.357   1_556  S
C1032      C1033   1.400       .  A
C1032      H1037   1.084       .  S
C1033      C1034   1.405       .  A
C1034      F1038   1.356       .  S
C1035      C2288   1.412       .  A
C1035      C1044   1.407   1_556  A
C1040      C2283   1.412       .  A
C1040      C1041   1.404   1_556  A
C1040      F1045   1.357       .  S
C1041      C1042   1.404       .  A
C1041      H1046   1.083       .  S
C1042      C1043   1.406       .  A
C1043      C2292   1.398       .  A
C1044      C2291   1.398       .  A
C1044      H1048   1.083       .  S
C1049      C1050   1.409       .  A
C1049      C1054   1.398       .  A
C1049      H1059   1.082       .  S
C1050      C1055   1.499   1_554  S
C1050      C1051   1.412       .  A
C1051      C1052   1.405       .  A
C1051      F1056   1.357       .  S
C1052      C1053   1.405       .  A
C1053      C1054   1.404       .  A
C1054      F1058   1.358       .  S
C1055      C1060   1.409       .  A
C1055      C1064   1.411       .  A
C1060      C1061   1.396       .  A
C1060      F1065   1.358   1_556  S
C1061      C1062   1.406       .  A
C1061      H1066   1.083       .  S
C1062      C1063   1.406       .  A
C1063      C1064   1.406       .  A
C1063      F1067   1.355       .  S
C1064      H1068   1.082       .  S
C1069      C1070   1.402       .  A
C1069      C1074   1.404       .  A
C1069      H1079   1.083       .  S
C1070      C1075   1.483   1_655  S
C1070      C1071   1.403       .  A
C1071      C1072   1.402       .  A
C1071      F1076   1.357       .  S
C1072      C1073   1.410       .  A
C1072      H1077   1.083       .  S
C1073      C1074   1.414       .  A
C1074      F1078   1.357       .  S
C1075      C1080   1.401       .  A
C1075      C1084   1.401       .  A
C1080      C1081   1.402       .  A
C1080      F1085   1.357       .  S
C1081      C1082   1.414       .  A
C1081      H1086   1.076       .  S
C1082      C1083   1.416       .  A
C1083      C1084   1.402       .  A
C1083      F1087   1.358       .  S
C1084      H1088   1.083       .  S
C1089      C1090   1.401       .  A
C1089      C1094   1.396       .  A
C1089      H1099   1.084       .  S
C1090      C1095   1.489       .  S
C1090      C1091   1.407       .  A
C1091      C1092   1.411       .  A
C1091      F1096   1.357       .  S
C1092      C1093   1.412       .  A
C1092      H1097   1.083       .  S
C1093      C1094   1.413       .  A
C1094      F1098   1.357       .  S
C1095      C1100   1.403       .  A
C1095      C1104   1.398       .  A
C1100      C1101   1.407       .  A
C1100      F1105   1.357       .  S
C1101      C1102   1.420       .  A
C1101      H1106   1.083       .  S
C1102      C1103   1.426       .  A
C1103      C1104   1.397       .  A
C1109      C1110   1.401       .  A
C1109      C1114   1.394       .  A
C1109      H1119   1.083       .  S
C1110      C1115   1.490       .  S
C1110      C1111   1.409       .  A
C1111      C1112   1.407       .  A
C1111      F1116   1.357       .  S
C1112      C1113   1.408       .  A
C1112      H1117   1.083       .  S
C1113      C1114   1.414       .  A
C1114      F1118   1.358       .  S
C1115      C1120   1.404       .  A
C1115      C1124   1.404       .  A
C1120      C1121   1.396       .  A
C1120      F1125   1.358       .  S
C1121      C1122   1.414       .  A
C1121      H1126   1.074       .  S
C1122      C1123   1.414       .  A
C1123      C1124   1.404       .  A
C1123      F1127   1.358       .  S
C1124      H1128   1.083       .  S
C1129      C1130   1.405       .  A
C1129      C1134   1.401       .  A
C1129      H1139   1.083       .  S
C1130      C1135   1.488       .  S
C1130      C1131   1.407       .  A
C1131      C1132   1.400       .  A
C1131      F1136   1.357       .  S
C1132      C1133   1.408       .  A
C1132      H1137   1.083       .  S
C1133      C1134   1.411       .  A
C1134      F1138   1.357       .  S
C1135      C1140   1.404       .  A
C1135      C1144   1.398       .  A
C1140      C1141   1.402       .  A
C1140      F1145   1.357       .  S
C1141      C1142   1.414       .  A
C1141      H1146   1.080       .  S
C1142      C1143   1.427       .  A
C1143      C1144   1.397       .  A
C1143      F1147   1.355       .  S
C1144      H1148   1.084       .  S
C1149      C2398   1.403   1_556  A
C1149      C1154   1.396       .  A
C1149      H1159   1.084       .  S
C1150      C1155   1.490       .  S
C1150      C2397   1.404   1_554  A
C1150      C2399   1.407   1_545  A
C1151      C2398   1.407       .  A
C1151      C1152   1.407   1_554  A
C1151      F2404   1.357       .  S
C1152      C1153   1.411       .  A
C1152      H1157   1.083       .  S
C1153      C1154   1.412       .  A
C1154      F1158   1.357       .  S
C1155      C1160   1.405       .  A
C1155      C1164   1.399       .  A
F1156      C2399   1.357       .  S
C1160      C1161   1.406       .  A
C1160      F2413   1.357       .  S
C1161      C1162   1.418       .  A
C1162      C1163   1.423       .  A
C1163      C1164   1.396       .  A
C1163      F1167   1.355       .  S
C1164      H1168   1.084   1_554  S
F1165      C2408   1.357       .  S
C1169      C1170   1.405   1_556  A
C1169      C1174   1.396       .  A
C1169      H1179   1.083       .  S
C1170      C1175   1.490       .  S
C1170      C1171   1.411       .  A
C1171      C1172   1.404   1_554  A
C1171      F1176   1.357       .  S
C1172      C1173   1.404       .  A
C1172      H1177   1.083       .  S
C1173      C1174   1.406       .  A
C1174      F1178   1.358       .  S
C1175      C1180   1.404       .  A
C1175      C1184   1.403       .  A
C1180      C1181   1.399       .  A
C1180      F1185   1.357       .  S
C1181      C1182   1.417       .  A
C1181      H1186   1.078       .  S
C1182      C1183   1.418       .  A
C1183      C1184   1.397       .  A
C1184      H1188   1.083       .  S
C1189      C1190   1.409       .  A
C1189      C1194   1.400       .  A
C1189      H2447   1.083   1_545  S
C1190      C1195   1.488       .  S
C1190      C1191   1.407       .  A
C1191      C1192   1.397       .  A
C1191      F1196   1.357       .  S
C1192      C1193   1.401       .  A
C1192      H1197   1.080       .  S
C1193      C1194   1.403       .  A
C1194      F1198   1.357       .  S
C1195      C2448   1.406   1_545  A
C1195      C1204   1.407       .  A
H1199      C2437   1.083       .  S
C1200      C2443   1.407       .  A
C1200      C1201   1.395       .  A
C1200      F1205   1.358       .  S
C1201      C1202   1.407       .  A
C1201      H1206   1.083       .  S
C1202      C1203   1.409       .  A
C1203      C2452   1.403       .  A
C1203      F1207   1.357       .  S
C1204      C2451   1.403   1_545  A
C1204      H1208   1.083       .  S
C1209      C1210   1.404       .  A
C1209      C1214   1.394       .  A
C1209      H1219   1.083       .  S
C1210      C1215   1.492       .  S
C1210      C1211   1.409       .  A
C1211      C1212   1.404       .  A
C1211      F1216   1.357       .  S
C1212      C1213   1.407       .  A
C1212      H1217   1.080       .  S
C1213      C1214   1.411       .  A
C1214      F1218   1.357       .  S
C1215      C1220   1.409       .  A
C1215      C1224   1.409       .  A
C1220      C1221   1.396       .  A
C1220      F1225   1.357       .  S
C1221      C1222   1.402       .  A
C1221      H1226   1.084       .  S
C1222      C1223   1.406       .  A
C1223      C1224   1.403       .  A
C1223      F1227   1.358       .  S
C1224      H1228   1.083       .  S
C1229      C1230   1.411       .  A
C1229      C1234   1.408       .  A
C1229      H1239   1.083       .  S
C1230      C1235   1.499       .  S
C1230      C1231   1.408       .  A
C1231      C1232   1.398       .  A
C1231      F1236   1.357       .  S
C1232      C1233   1.407       .  A
C1232      H1237   1.083       .  S
C1233      C1234   1.407       .  A
C1234      F1238   1.357       .  S
C1235      C1240   1.406       .  A
C1235      C1244   1.406       .  A
C1240      C1241   1.404       .  A
C1240      F1245   1.358       .  S
C1241      C1242   1.416       .  A
C1241      H1246   1.076       .  S
C1242      C1243   1.413       .  A
C1243      C1244   1.402       .  A
C1243      F1247   1.358       .  S
C1244      H1248   1.083       .  S
Zn1249     O1253   1.968       .  S
Zn1249     O1254   2.049       .  S
Zn1249     O1258   2.033       .  S
Zn1249     O1265   2.024       .  S
Zn1250     O1253   1.946       .  S
Zn1250     O1255   1.998       .  S
Zn1250     O1257   1.994       .  S
Zn1250     O1261   2.000       .  S
Zn1251     O1253   1.968       .  S
Zn1251     O1256   2.036       .  S
Zn1251     O1259   2.033       .  S
Zn1251     O1262   2.006       .  S
Zn1252     O1253   1.988       .  S
Zn1252     O1260   2.053       .  S
Zn1252     O1263   2.072       .  S
Zn1252     O1264   2.049       .  S
O1254      C1266   1.276       .  A
O1255      C1267   1.270       .  A
O1256      C1268   1.276       .  A
O1257      C1266   1.271       .  A
O1258      C1268   1.276       .  A
O1259      C1267   1.273       .  A
O1260      C1269   1.278       .  A
O1261      C1270   1.272       .  A
O1262      C1269   1.273       .  A
O1263      C1270   1.279       .  A
O1264      C1271   1.278       .  A
O1265      C1271   1.276       .  A
C1266      C1826   1.489       .  S
C1267      C1846   1.476       .  S
C1268      C1757   1.494       .  S
C1269      C1797   1.480       .  S
C1270      C1857   1.488       .  S
C1271      C1777   1.495       .  S
C1272      C1273   1.544       .  S
C1272      C1278   1.534       .  S
C1272      C1276   1.528       .  S
C1272      C1746   1.539       .  S
C1273      H1280   1.079       .  S
C1273      C1274   1.370       .  D
C1274      C1275   1.542       .  S
C1274      C1837   1.497       .  S
C1275      C1279   1.539       .  S
C1275      C1277   1.551       .  S
C1275      H1281   1.103       .  S
C1276      H1282   1.086       .  S
C1276      C1277   1.376       .  D
C1277      C1284   1.552       .  S
C1278      H1283   1.086       .  S
C1278      C1279   1.364       .  D
C1279      C1817   1.478       .  S
C1284      C1726   1.569       .  S
C1284      C2410   1.566       .  S
C1284      C2430   1.560       .  S
Zn1285     O1289   1.983       .  S
Zn1285     O1290   2.046       .  S
Zn1285     O1294   2.055       .  S
Zn1285     O1301   2.070       .  S
Zn1286     O1289   1.969       .  S
Zn1286     O1291   2.030       .  S
Zn1286     O1293   2.022       .  S
Zn1286     O1297   2.027       .  S
Zn1287     O1289   1.965       .  S
Zn1287     O1292   2.029       .  S
Zn1287     O1295   2.047       .  S
Zn1287     O1298   2.016       .  S
Zn1288     O1289   1.970       .  S
Zn1288     O1296   2.042       .  S
Zn1288     O1299   2.030       .  S
Zn1288     O1300   2.018       .  S
O1290      C1302   1.279       .  A
O1291      C1303   1.275       .  A
O1292      C1304   1.276       .  A
O1293      C1302   1.276       .  A
O1294      C1304   1.278       .  A
O1295      C1303   1.277       .  A
O1296      C1305   1.276       .  A
O1297      C1306   1.274       .  A
O1298      C1305   1.274       .  A
O1299      C1306   1.274       .  A
O1300      C1307   1.275       .  A
O1301      C1307   1.279       .  A
C1302      C1637   1.493       .  S
C1303      C1697   1.496       .  S
C1304      C1626   1.492       .  S
C1305      C2290   1.479       .  S
C1306      C2301   1.480       .  S
C1307      C1717   1.496       .  S
C1308      C1309   1.532       .  S
C1308      C1314   1.545       .  S
C1308      C1312   1.528       .  S
C1308      C1597   1.540       .  S
C1309      H1316   1.087       .  S
C1309      C1310   1.367       .  D
C1310      C1311   1.544       .  S
C1310      C1686   1.494       .  S
C1311      C1315   1.541       .  S
C1311      C1313   1.565       .  S
C1311      H1317   1.104       .  S
C1312      H1318   1.086       .  S
C1312      C1313   1.376       .  D
C1313      C1320   1.561       .  S
C1314      H1319   1.081       .  S
C1314      C1315   1.367       .  D
C1315      C1657   1.480       .  S
C1320      C1617   1.569       .  S
C1320      C1646   1.564       .  S
C1320      C1766   1.565       .  S
Zn1321     O1325   1.968       .  S
Zn1321     O1326   2.023       .  S
Zn1321     O1330   2.034       .  S
Zn1321     O1337   2.014       .  S
Zn1322     O1325   1.970       .  S
Zn1322     O1327   2.067       .  S
Zn1322     O1329   2.044       .  S
Zn1322     O1333   2.021       .  S
Zn1323     O1325   1.938       .  S
Zn1323     O1328   1.983       .  S
Zn1323     O1331   1.996       .  S
Zn1323     O1334   1.977       .  S
Zn1324     O1325   1.991       .  S
Zn1324     O1332   2.075       .  S
Zn1324     O1335   2.048   1_554  S
Zn1324     O1336   2.049       .  S
O1326      C1338   1.274       .  A
O1327      C1339   1.278       .  A
O1328      C1340   1.269       .  A
O1329      C1338   1.278       .  A
O1330      C1340   1.274       .  A
O1331      C1339   1.270       .  A
O1332      C1341   1.279       .  A
O1333      C1342   1.276       .  A
O1334      C1341   1.269       .  A
O1335      C1342   1.278   1_556  A
O1336      C1343   1.277       .  A
O1337      C1343   1.275       .  A
C1338      C1497   1.491       .  S
C1339      C1586   1.494       .  S
C1340      C1557   1.478       .  S
C1341      C1737   1.492       .  S
C1342      C1517   1.481   1_554  S
C1343      C1537   1.493   1_554  S
C1344      C1345   1.538       .  S
C1344      C1350   1.537       .  S
C1344      C1348   1.537       .  S
C1344      C1866   1.540       .  S
C1345      H1352   1.086       .  S
C1345      C1346   1.366       .  D
C1346      C1347   1.536       .  S
C1346      C1566   1.481       .  S
C1347      C1351   1.540       .  S
C1347      C1349   1.551       .  S
C1347      H1353   1.105       .  S
C1348      H1354   1.080       .  S
C1348      C1349   1.377       .  D
C1349      C1356   1.554       .  S
C1350      H1355   1.086       .  S
C1350      C1351   1.365       .  D
C1351      C1577   1.481       .  S
C1356      C1477   1.567       .  S
C1356      C1526   1.562       .  S
C1356      C1546   1.567       .  S
Zn1357     O1361   1.981       .  S
Zn1357     O1362   2.045       .  S
Zn1357     O1366   2.045       .  S
Zn1357     O1373   2.051       .  S
Zn1358     O1361   1.963       .  S
Zn1358     O1363   2.028       .  S
Zn1358     O1365   2.019       .  S
Zn1358     O1369   2.014       .  S
Zn1359     O1361   1.966       .  S
Zn1359     O1364   2.035       .  S
Zn1359     O1367   2.041       .  S
Zn1359     O1370   2.034       .  S
Zn1360     O1361   1.963       .  S
Zn1360     O1368   2.021       .  S
Zn1360     O1371   2.022       .  S
Zn1360     O1372   2.008       .  S
O1362      C1374   1.277       .  A
O1363      C1375   1.275       .  A
O1364      C1376   1.277       .  A
O1365      C1374   1.275       .  A
O1366      C1376   1.278       .  A
O1367      C1375   1.277       .  A
O1368      C1377   1.273       .  A
O1369      C1378   1.272       .  A
O1370      C1377   1.276       .  A
O1371      C1378   1.273       .  A
O1372      C1379   1.275       .  A
O1373      C1379   1.277       .  A
C1374      C1426   1.490       .  S
C1375      C1606   1.494       .  S
C1376      C1397   1.495       .  S
C1377      C1437   1.487       .  S
C1378      C1457   1.487       .  S
C1379      C1486   1.492       .  S
C1380      C1381   1.540       .  S
C1380      C1386   1.530       .  S
C1380      C1384   1.536       .  S
C1380      C1706   1.542       .  S
C1381      H1388   1.086       .  S
C1381      C1382   1.370       .  D
C1382      C1383   1.545       .  S
C1382      C1466   1.490       .  S
C1383      C1387   1.545       .  S
C1383      C1385   1.564       .  S
C1383      H1389   1.106       .  S
C1384      H1390   1.081       .  S
C1384      C1385   1.375       .  D
C1385      C1392   1.562       .  S
C1386      H1391   1.086       .  S
C1386      C1387   1.366       .  D
C1387      C1446   1.496       .  S
C1392      C1406   1.566       .  S
C1392      C1417   1.568       .  S
C1392      C1506   1.561       .  S
C1393      C1394   1.405       .  A
C1393      C1398   1.401       .  A
C1393      H1403   1.083       .  S
C1394      C1399   1.493       .  S
C1394      C1395   1.408       .  A
C1395      C1396   1.404       .  A
C1395      F1400   1.358       .  S
C1396      C1397   1.409       .  A
C1396      H1401   1.083       .  S
C1397      C1398   1.412       .  A
C1398      F1402   1.357       .  S
C1399      C1404   1.405       .  A
C1399      C1408   1.404       .  A
C1404      C1405   1.398       .  A
C1404      F1409   1.358       .  S
C1405      C1406   1.416       .  A
C1405      H1410   1.079       .  S
C1406      C1407   1.419       .  A
C1407      C1408   1.404       .  A
C1407      F1411   1.356       .  S
C1408      H1412   1.083       .  S
C1413      C1414   1.398       .  A
C1413      C1418   1.401       .  A
C1413      H1423   1.084       .  S
C1414      C1419   1.480       .  S
C1414      C1415   1.399       .  A
C1415      C1416   1.400       .  A
C1415      F1420   1.357       .  S
C1416      C1417   1.420       .  A
C1416      H1421   1.082       .  S
C1417      C1418   1.423       .  A
C1418      F1422   1.351       .  S
C1419      C1428   1.403       .  A
C1424      C1425   1.400   1_545  A
C1424      F1429   1.358       .  S
C1425      C1426   1.409       .  A
C1425      H1430   1.083       .  S
C1426      C1427   1.411       .  A
C1427      F1431   1.357       .  S
C1428      H1432   1.083       .  S
C1433      C1434   1.405       .  A
C1433      C1438   1.402       .  A
C1433      H2067   1.083       .  S
C1434      C1439   1.492       .  S
C1434      C1435   1.409       .  A
C1435      C1436   1.400       .  A
C1435      F1440   1.357       .  S
C1436      C1437   1.405       .  A
C1436      H1441   1.083       .  S
C1437      C1438   1.410       .  A
C1438      F1442   1.358       .  S
C1439      C2068   1.411       .  A
C1439      C1448   1.402       .  A
H1443      C2057   1.083       .  S
C1444      C2063   1.412       .  A
C1444      C1445   1.407   1_556  A
C1444      F1449   1.357       .  S
C1445      C1446   1.406       .  A
C1445      H1450   1.082       .  S
C1446      C1447   1.412   1_554  A
C1447      C2072   1.395       .  A
C1447      F1451   1.357       .  S
C1448      C2071   1.395       .  A
C1448      H1452   1.083       .  S
C1453      C1458   1.398   1_545  A
C1453      H1463   1.083       .  S
C1454      C1459   1.486       .  S
C1454      C1455   1.407       .  A
C1455      F1460   1.357       .  S
C1456      C1457   1.408       .  A
C1456      H1461   1.083       .  S
C1457      C1458   1.411       .  A
C1458      F1462   1.357       .  S
C1459      C2088   1.408       .  A
C1459      C2092   1.404       .  A
C1464      C2083   1.406       .  A
C1464      C1465   1.403       .  A
C1464      F2093   1.357       .  S
C1465      C1466   1.406   1_556  A
C1465      H1470   1.083       .  S
C1466      C1467   1.409       .  A
C1467      C1468   1.399   1_554  A
C1467      F1471   1.357       .  S
C1468      C2083   1.403       .  A
C1468      H1472   1.083       .  S
F1469      C2088   1.357       .  S
C1473      C1474   1.396       .  A
C1473      C1478   1.393       .  A
C1473      H1483   1.084       .  S
C1474      C1479   1.487       .  S
C1474      C1475   1.403       .  A
C1475      C1476   1.407       .  A
C1475      F1480   1.357       .  S
C1476      C1477   1.418       .  A
C1476      H1481   1.082       .  S
C1477      C1478   1.428       .  A
C1478      F1482   1.354       .  S
C1479      C1484   1.405       .  A
C1479      C1488   1.405       .  A
C1484      C1485   1.393       .  A
C1484      F1489   1.358       .  S
C1485      C1486   1.406       .  A
C1485      H1490   1.083       .  S
C1486      C1487   1.414       .  A
C1487      C1488   1.409       .  A
C1487      F1491   1.357       .  S
C1488      H1492   1.083       .  S
C1493      C1494   1.404       .  A
C1493      C1498   1.404       .  A
C1493      H1503   1.083       .  S
C1494      C1499   1.488       .  S
C1494      C1495   1.407       .  A
C1495      C1496   1.399       .  A
C1495      F1500   1.357       .  S
C1496      C1497   1.406       .  A
C1496      H1501   1.083       .  S
C1497      C1498   1.413       .  A
C1498      F1502   1.357       .  S
C1499      C1504   1.405       .  A
C1499      C1508   1.395       .  A
C1504      C1505   1.407       .  A
C1504      F1509   1.357       .  S
C1505      C1506   1.418       .  A
C1505      H1510   1.083       .  S
C1506      C1507   1.427       .  A
C1507      C1508   1.392       .  A
C1507      F1511   1.355       .  S
C1508      H1512   1.084       .  S
C1513      C2138   1.408       .  A
C1513      C2142   1.406       .  A
C1513      H1523   1.083       .  S
C1514      C2143   1.492       .  S
C1514      C2137   1.408       .  A
C1514      C1515   1.409       .  A
C1515      C1516   1.397       .  A
C1515      F1520   1.358       .  S
C1516      C1517   1.403       .  A
C1516      H1521   1.084   1_556  S
C1517      C1518   1.407       .  A
C1518      C2137   1.405       .  A
C1518      F1522   1.357       .  S
C1519      C2138   1.494       .  S
C1519      C1524   1.405       .  A
C1519      C1528   1.404       .  A
C1524      C1525   1.401       .  A
C1524      F1529   1.357       .  S
C1525      C1526   1.419       .  A
C1525      H1530   1.079       .  S
C1526      C1527   1.418       .  A
C1527      C1528   1.399       .  A
C1527      F1531   1.356       .  S
C1528      H1532   1.083       .  S
C1533      C2162   1.407       .  A
C1533      H1543   1.083       .  S
C1534      C2163   1.488       .  S
C1534      C1535   1.406       .  A
C1535      F1540   1.358       .  S
C1536      C1537   1.408       .  A
C1536      H1541   1.083   1_556  S
C1537      C1538   1.413       .  A
C1538      C2157   1.406       .  A
C1538      F1542   1.357       .  S
C1539      C2158   1.491       .  S
C1539      C1544   1.404       .  A
C1539      C1548   1.401       .  A
C1544      C1545   1.403       .  A
C1544      F1549   1.357       .  S
C1545      C1546   1.420       .  A
C1545      H1550   1.083       .  S
C1546      C1547   1.422       .  A
C1547      C1548   1.398       .  A
C1547      F1551   1.354       .  S
C1548      H1552   1.084       .  S
C1553      C1554   1.402   1_545  A
C1553      H1563   1.084       .  S
C1554      C1559   1.482       .  S
C1555      C1556   1.400       .  A
C1555      F1560   1.357       .  S
C1556      C1557   1.405       .  A
C1556      H1561   1.083       .  S
C1557      C1558   1.409       .  A
C1558      F1562   1.358       .  S
C1559      C1564   1.406       .  A
C1559      C1568   1.406       .  A
C1564      C1565   1.397       .  A
C1564      F1569   1.357       .  S
C1565      C1566   1.404       .  A
C1565      H1570   1.081       .  S
C1566      C1567   1.404       .  A
C1567      C1568   1.397       .  A
C1567      F1571   1.357       .  S
C1573      C1574   1.406       .  A
C1573      C1578   1.401       .  A
C1573      H1583   1.083       .  S
C1574      C1579   1.491       .  S
C1574      C1575   1.410       .  A
C1575      C1576   1.403       .  A
C1575      F1580   1.357       .  S
C1576      C1577   1.402       .  A
C1576      H1581   1.083       .  S
C1577      C1578   1.405       .  A
C1578      F1582   1.357       .  S
C1579      C1584   1.409       .  A
C1579      C1588   1.402       .  A
C1584      C1585   1.406       .  A
C1584      F1589   1.357       .  S
C1585      C1586   1.408       .  A
C1585      H1590   1.083       .  S
C1586      C1587   1.414       .  A
C1587      C1588   1.398       .  A
C1587      F1591   1.358       .  S
C1588      H1592   1.083       .  S
C1593      C1594   1.404       .  A
C1593      C1598   1.401       .  A
C1593      H1603   1.083       .  S
C1594      C1599   1.496   1_655  S
C1594      C1595   1.408       .  A
C1595      C1596   1.402       .  A
C1595      F1600   1.358       .  S
C1596      C1597   1.412       .  A
C1596      H1601   1.076       .  S
C1597      C1598   1.414       .  A
C1598      F1602   1.358       .  S
C1599      C1604   1.409       .  A
C1599      C1608   1.406       .  A
C1604      C1605   1.402       .  A
C1604      F1609   1.357       .  S
C1605      C1606   1.407       .  A
C1605      H1610   1.083       .  S
C1606      C1607   1.411       .  A
C1607      C1608   1.402       .  A
C1607      F1611   1.357       .  S
C1608      H1612   1.083       .  S
C1613      C1614   1.400       .  A
C1613      C1618   1.401       .  A
C1613      H1623   1.083       .  S
C1614      C1619   1.491       .  S
C1614      C1615   1.403       .  A
C1615      C1616   1.401       .  A
C1615      F1620   1.357       .  S
C1616      C1617   1.418       .  A
C1616      H1621   1.082       .  S
C1617      C1618   1.424       .  A
C1618      F1622   1.351       .  S
C1619      C1628   1.404       .  A
C1624      C1625   1.405       .  A
C1624      F1629   1.357       .  S
C1625      C1626   1.407       .  A
C1625      H1630   1.083       .  S
C1626      C1627   1.411       .  A
C1627      F1631   1.357       .  S
C1628      H1632   1.083       .  S
C1633      C1634   1.405       .  A
C1633      C1638   1.399       .  A
C1633      H1643   1.083       .  S
C1634      C1639   1.490       .  S
C1634      C1635   1.407       .  A
C1635      C1636   1.402       .  A
C1635      F1640   1.358       .  S
C1636      C1637   1.410       .  A
C1636      H1641   1.083       .  S
C1637      C1638   1.410       .  A
C1638      F1642   1.357       .  S
C1639      C1644   1.405       .  A
C1639      C1648   1.402       .  A
C1644      C1645   1.399       .  A
C1644      F1649   1.357       .  S
C1645      C1646   1.416       .  A
C1645      H1650   1.079       .  S
C1646      C1647   1.418       .  A
C1647      C1648   1.399       .  A
C1647      F1651   1.353       .  S
C1648      H1652   1.083       .  S
C1653      C1654   1.408       .  A
C1653      C1658   1.400       .  A
C1653      H1663   1.083   1_565  S
C1654      C1659   1.493   1_565  S
C1654      C1655   1.411       .  A
C1655      C1656   1.398       .  A
C1655      F1660   1.357       .  S
C1656      C1657   1.401       .  A
C1656      H1661   1.084       .  S
C1657      C1658   1.403       .  A
C1658      F1662   1.354       .  S
C1659      C1668   1.407   1_545  A
C1664      C1665   1.399       .  A
C1664      F1669   1.357       .  S
C1665      C1666   1.401       .  A
C1665      H1670   1.083       .  S
C1666      C1929   1.473       .  S
C1666      C1667   1.406       .  A
C1667      F2295   1.358       .  S
C1668      H1672   1.083       .  S
F1671      C2291   1.358       .  S
C1673      C1674   1.408       .  A
C1673      C1678   1.396       .  A
C1673      H1683   1.083       .  S
C1674      C1679   1.495       .  S
C1674      C1675   1.411       .  A
C1675      C1676   1.405       .  A
C1675      F1680   1.357       .  S
C1676      C1677   1.405       .  A
C1676      H2305   1.083       .  S
C1677      C1930   1.476       .  S
C1677      C1678   1.402       .  A
C1678      F1682   1.358       .  S
C1679      C1684   1.408       .  A
C1679      C1688   1.409       .  A
H1681      C2300   1.083       .  S
C1684      C1685   1.395       .  A
C1684      F1689   1.358       .  S
C1685      C1686   1.406       .  A
C1685      H1690   1.083       .  S
C1686      C1687   1.407       .  A
C1687      C1688   1.406       .  A
C1687      F1691   1.355       .  S
C1688      H1692   1.082       .  S
C1693      C1694   1.404       .  A
C1693      C1698   1.404       .  A
C1693      H1703   1.083       .  S
C1694      C1699   1.488   1_655  S
C1694      C1695   1.405       .  A
C1695      C1696   1.402       .  A
C1695      F1700   1.358   1_655  S
C1696      C1697   1.410       .  A
C1696      H1701   1.083       .  S
C1697      C1698   1.413       .  A
C1698      F1702   1.357       .  S
C1699      C1704   1.403       .  A
C1699      C1708   1.402       .  A
C1704      C1705   1.402       .  A
C1704      F1709   1.357       .  S
C1705      C1706   1.414       .  A
C1705      H1710   1.077       .  S
C1706      C1707   1.416       .  A
C1707      C1708   1.402       .  A
C1707      F1711   1.358       .  S
C1708      H1712   1.083       .  S
C1713      C1714   1.400       .  A
C1713      C1718   1.398       .  A
C1713      H1723   1.084       .  S
C1714      C1719   1.486       .  S
C1714      C1715   1.406       .  A
C1715      C1716   1.410       .  A
C1715      F1720   1.357       .  S
C1716      C1717   1.411       .  A
C1716      H1721   1.083       .  S
C1717      C1718   1.412       .  A
C1718      F1722   1.357       .  S
C1719      C1724   1.401       .  A
C1719      C1728   1.397       .  A
C1724      C1725   1.405       .  A
C1724      F1729   1.357       .  S
C1725      C1726   1.420       .  A
C1725      H1730   1.083       .  S
C1726      C1727   1.427       .  A
C1727      C1728   1.399       .  A
C1727      F2355   1.353       .  S
C1728      H2356   1.084       .  S
F1731      C2351   1.354       .  S
H1732      C2352   1.084       .  S
C1733      C1734   1.400       .  A
C1733      C1738   1.393       .  A
C1733      H1743   1.084       .  S
C1734      C1739   1.487       .  S
C1734      C1735   1.408       .  A
C1735      C1736   1.408       .  A
C1735      F1740   1.357       .  S
C1736      C1737   1.409       .  A
C1736      H1741   1.083       .  S
C1737      C1738   1.414       .  A
C1738      F1742   1.358       .  S
C1739      C1744   1.404       .  A
C1739      C1748   1.403       .  A
C1744      C1745   1.397       .  A
C1744      F1749   1.358       .  S
C1745      C1746   1.412       .  A
C1745      H1750   1.076       .  S
C1746      C1747   1.415       .  A
C1747      C1748   1.405       .  A
C1747      F1751   1.358       .  S
C1748      H1752   1.083       .  S
C1753      C1754   1.407       .  A
C1753      C1758   1.403       .  A
C1753      H1763   1.083       .  S
C1754      C1759   1.493       .  S
C1754      C1755   1.408       .  A
C1755      C1756   1.401       .  A
C1755      F1760   1.357       .  S
C1756      C1757   1.408       .  A
C1756      H1761   1.083       .  S
C1757      C1758   1.411       .  A
C1758      F1762   1.357       .  S
C1759      C1764   1.405       .  A
C1759      C1768   1.399       .  A
C1764      C1765   1.403       .  A
C1764      F1769   1.357       .  S
C1765      C1766   1.413       .  A
C1765      H1770   1.077       .  S
C1766      C1767   1.428       .  A
C1767      C1768   1.398       .  A
C1767      F1771   1.355       .  S
C1768      H1772   1.084       .  S
C1773      C1778   1.397   1_545  A
C1773      H1783   1.084       .  S
C1774      C1779   1.483       .  S
C1775      C1776   1.407       .  A
C1776      C1777   1.411       .  A
C1776      H1781   1.083       .  S
C1777      C1778   1.412       .  A
C1778      F1782   1.357       .  S
C1779      C1784   1.403       .  A
C1779      C1788   1.398       .  A
C1784      C1785   1.404       .  A
C1785      C1786   1.418       .  A
C1785      H2414   1.083       .  S
C1786      C1908   1.562       .  S
C1786      C1787   1.422       .  A
C1787      C1788   1.395       .  A
C1787      F1791   1.356       .  S
C1788      H1792   1.084       .  S
H1790      C2409   1.083       .  S
C1793      C1794   1.406       .  A
C1793      C1798   1.397       .  A
C1793      H1803   1.083       .  S
C1794      C1799   1.492       .  S
C1794      C1795   1.411       .  A
C1795      C1796   1.404       .  A
C1795      F1800   1.357       .  S
C1796      C1797   1.404       .  A
C1796      H1801   1.083       .  S
C1797      C1798   1.406       .  A
C1798      F1802   1.358       .  S
C1799      C1804   1.405       .  A
C1799      C1808   1.403       .  A
C1804      C1805   1.401       .  A
C1804      F1809   1.357       .  S
C1805      C1806   1.417       .  A
C1805      H1810   1.078       .  S
C1806      C1908   1.561       .  S
C1806      C1807   1.419       .  A
C1807      C1808   1.397       .  A
C1807      F2435   1.356       .  S
C1808      H1812   1.083       .  S
F1811      C2431   1.357       .  S
C1813      C1814   1.408       .  A
C1813      C1818   1.399       .  A
C1814      C1819   1.489       .  S
C1814      C1815   1.408       .  A
C1815      C1816   1.399       .  A
C1815      F1820   1.357       .  S
C1816      C1817   1.402       .  A
C1816      H1821   1.081       .  S
C1817      C1818   1.402       .  A
C1818      F1822   1.357       .  S
C1819      C1828   1.408       .  A
C1824      C1825   1.394       .  A
C1824      F1829   1.358       .  S
C1825      C1826   1.407       .  A
C1825      H1830   1.083       .  S
C1826      C1827   1.410       .  A
C1827      F1831   1.357       .  S
C1828      H1832   1.083       .  S
C1833      C1834   1.405       .  A
C1833      C1838   1.396       .  A
C1833      H1843   1.082       .  S
C1834      C1839   1.491       .  S
C1834      C1835   1.408       .  A
C1835      C1836   1.401       .  A
C1835      F1840   1.357       .  S
C1836      C1837   1.407       .  A
C1836      H1841   1.079       .  S
C1837      C1838   1.411       .  A
C1838      F1842   1.357       .  S
C1839      C1844   1.409       .  A
C1839      C1848   1.409       .  A
C1844      C1845   1.397       .  A
C1844      F1849   1.357       .  S
C1845      C1846   1.403       .  A
C1845      H1850   1.084       .  S
C1846      C1847   1.405       .  A
C1847      C1848   1.401       .  A
C1847      F1851   1.358       .  S
C1848      H1852   1.083       .  S
C1853      C1854   1.409       .  A
C1853      C1858   1.407       .  A
C1853      H1863   1.083       .  S
C1854      C1859   1.492       .  S
C1854      C1855   1.406       .  A
C1855      C1856   1.397       .  A
C1855      F1860   1.358       .  S
C1856      C1857   1.407       .  A
C1856      H1861   1.083       .  S
C1857      C1858   1.408       .  A
C1858      F1862   1.357       .  S
C1859      C1864   1.404       .  A
C1859      C1868   1.404       .  A
C1864      C1865   1.402       .  A
C1864      F1869   1.357       .  S
C1865      C1866   1.415       .  A
C1865      H1870   1.076       .  S
C1866      C1867   1.414       .  A
C1867      C1868   1.400       .  A
C1867      F1871   1.358       .  S
C1868      H1872   1.083       .  S
Zn1873     O1877   1.969       .  S
Zn1873     O1878   2.047       .  S
Zn1873     O1882   2.035       .  S
Zn1873     O1889   2.025       .  S
Zn1874     O1877   1.944       .  S
Zn1874     O1879   1.999       .  S
Zn1874     O1881   1.991       .  S
Zn1874     O1885   1.995       .  S
Zn1875     O1877   1.966       .  S
Zn1875     O1880   2.031       .  S
Zn1875     O1883   2.035       .  S
Zn1875     O1886   1.999       .  S
Zn1876     O1877   1.989       .  S
Zn1876     O1884   2.057       .  S
Zn1876     O1887   2.078       .  S
Zn1876     O1888   2.049       .  S
O1878      C1890   1.276       .  A
O1879      C1891   1.270       .  A
O1880      C1892   1.275       .  A
O1881      C1890   1.271       .  A
O1882      C1892   1.276       .  A
O1883      C1891   1.273       .  A
O1884      C1893   1.279       .  A
O1885      C1894   1.272       .  A
O1886      C1893   1.273       .  A
O1887      C1894   1.280       .  A
O1888      C1895   1.278       .  A
O1889      C1895   1.276       .  A
C1890      C2450   1.487       .  S
C1891      C2470   1.476       .  S
C1892      C2381   1.492       .  S
C1893      C2421   1.479       .  S
C1894      C2481   1.489       .  S
C1895      C2401   1.495       .  S
C1896      C1897   1.543       .  S
C1896      C1902   1.532       .  S
C1896      C1900   1.531       .  S
C1896      C2370   1.539       .  S
C1897      H1904   1.077       .  S
C1897      C1898   1.367       .  D
C1898      C1899   1.540       .  S
C1898      C2461   1.495       .  S
C1899      C1903   1.542       .  S
C1899      C1901   1.553       .  S
C1899      H1905   1.104       .  S
C1900      H1906   1.086       .  S
C1900      C1901   1.377       .  D
C1901      C1908   1.552       .  S
C1902      H1907   1.086       .  S
C1902      C1903   1.364       .  D
C1903      C2441   1.478       .  S
C1908      C2350   1.566       .  S
Zn1909     O1913   1.983       .  S
Zn1909     O1914   2.045       .  S
Zn1909     O1918   2.057       .  S
Zn1909     O1925   2.070       .  S
Zn1910     O1913   1.966       .  S
Zn1910     O1915   2.035       .  S
Zn1910     O1917   2.022       .  S
Zn1910     O1921   2.028       .  S
Zn1911     O1913   1.960       .  S
Zn1911     O1916   2.013       .  S
Zn1911     O1919   2.039       .  S
Zn1911     O1922   1.997       .  S
Zn1912     O1913   1.966       .  S
Zn1912     O1920   2.035       .  S
Zn1912     O1923   2.026       .  S
Zn1912     O1924   2.008       .  S
O1914      C1926   1.279       .  A
O1915      C1927   1.275       .  A
O1916      C1928   1.274       .  A
O1917      C1926   1.276       .  A
O1918      C1928   1.278       .  A
O1919      C1927   1.275       .  A
O1920      C1929   1.275       .  A
O1921      C1930   1.274       .  A
O1922      C1929   1.270       .  A
O1923      C1930   1.273       .  A
O1924      C1931   1.274       .  A
O1925      C1931   1.279       .  A
C1926      C2261   1.492       .  S
C1927      C2321   1.494       .  S
C1928      C2250   1.488       .  S
C1931      C2341   1.495       .  S
C1932      C1933   1.531       .  S
C1932      C1938   1.545       .  S
C1932      C1936   1.528       .  S
C1932      C2221   1.536       .  S
C1933      H1940   1.087       .  S
C1933      C1934   1.365       .  D
C1934      C1935   1.542       .  S
C1934      C2310   1.490       .  S
C1935      C1939   1.544       .  S
C1935      C1937   1.566       .  S
C1935      H1941   1.105       .  S
C1936      H1942   1.086       .  S
C1936      C1937   1.374       .  D
C1937      C1944   1.560       .  S
C1938      H1943   1.082       .  S
C1938      C1939   1.367       .  D
C1939      C2281   1.483       .  S
C1944      C2241   1.567       .  S
C1944      C2270   1.567       .  S
C1944      C2390   1.563       .  S
Zn1945     O1949   1.972       .  S
Zn1945     O1950   2.032       .  S
Zn1945     O1954   2.056       .  S
Zn1945     O1961   2.018       .  S
Zn1946     O1949   1.971       .  S
Zn1946     O1951   2.064       .  S
Zn1946     O1953   2.044       .  S
Zn1946     O1957   2.025       .  S
Zn1947     O1949   1.940       .  S
Zn1947     O1952   1.996       .  S
Zn1947     O1955   2.004       .  S
Zn1947     O1958   1.975       .  S
Zn1948     O1949   1.998       .  S
Zn1948     O1956   2.075       .  S
Zn1948     O1959   2.052       .  S
Zn1948     O1960   2.054       .  S
O1950      C1962   1.276       .  A
O1951      C1963   1.278       .  A
O1952      C1964   1.270       .  A
O1953      C1962   1.279       .  A
O1954      C1964   1.276       .  A
O1955      C1963   1.271       .  A
O1956      C1965   1.280       .  A
O1957      C1966   1.276       .  A
O1958      C1965   1.269       .  A
O1959      C1966   1.278       .  A
O1960      C1967   1.278       .  A
O1961      C1967   1.276       .  A
C1962      C2121   1.495       .  S
C1963      C2210   1.494       .  S
C1964      C2181   1.488       .  S
C1965      C2361   1.492       .  S
C1966      C2141   1.484       .  S
C1967      C2161   1.494       .  S
C1968      C1969   1.540       .  S
C1968      C1974   1.539       .  S
C1968      C1972   1.536       .  S
C1968      C2490   1.546       .  S
C1969      H1976   1.086       .  S
C1969      C1970   1.368       .  D
C1970      C1971   1.540       .  S
C1970      C2190   1.486       .  S
C1971      C1975   1.542       .  S
C1971      C1973   1.554       .  S
C1971      H1977   1.107       .  S
C1972      H1978   1.079       .  S
C1972      C1973   1.375       .  D
C1973      C1980   1.557       .  S
C1974      H1979   1.086       .  S
C1974      C1975   1.368       .  D
C1975      C2201   1.485       .  S
C1980      C2101   1.568       .  S
C1980      C2150   1.562       .  S
C1980      C2170   1.568       .  S
Zn1981     O1985   1.983       .  S
Zn1981     O1986   2.056       .  S
Zn1981     O1990   2.051       .  S
Zn1981     O1997   2.068       .  S
Zn1982     O1985   1.959       .  S
Zn1982     O1987   2.015       .  S
Zn1982     O1989   2.016       .  S
Zn1982     O1993   2.015       .  S
Zn1983     O1985   1.968       .  S
Zn1983     O1988   2.027       .  S
Zn1983     O1991   2.043       .  S
Zn1983     O1994   2.042       .  S
Zn1984     O1985   1.959       .  S
Zn1984     O1992   2.021       .  S
Zn1984     O1995   2.029       .  S
Zn1984     O1996   2.008       .  S
O1986      C1998   1.278       .  A
O1987      C1999   1.273       .  A
O1988      C2000   1.277       .  A
O1989      C1998   1.275       .  A
O1990      C2000   1.280       .  A
O1991      C1999   1.277       .  A
O1992      C2001   1.273       .  A
O1993      C2002   1.273       .  A
O1994      C2001   1.277       .  A
O1995      C2002   1.275       .  A
O1996      C2003   1.275       .  A
O1997      C2003   1.279       .  A
C1998      C2050   1.491       .  S
C1999      C2230   1.492       .  S
C2000      C2021   1.494       .  S
C2001      C2061   1.491       .  S
C2002      C2081   1.490       .  S
C2003      C2110   1.497       .  S
C2004      C2005   1.538       .  S
C2004      C2010   1.528       .  S
C2004      C2008   1.537       .  S
C2004      C2330   1.541       .  S
C2005      H2012   1.086       .  S
C2005      C2006   1.371       .  D
C2006      C2007   1.544       .  S
C2006      C2090   1.487       .  S
C2007      C2011   1.547       .  S
C2007      C2009   1.561       .  S
C2007      H2013   1.106       .  S
C2008      H2014   1.081       .  S
C2008      C2009   1.377       .  D
C2009      C2016   1.561       .  S
C2010      H2015   1.086       .  S
C2010      C2011   1.365       .  D
C2011      C2070   1.494       .  S
C2016      C2030   1.563       .  S
C2016      C2041   1.571       .  S
C2016      C2130   1.564       .  S
C2017      C2018   1.405       .  A
C2017      C2022   1.401       .  A
C2017      H2027   1.083       .  S
C2018      C2023   1.493       .  S
C2018      C2019   1.409       .  A
C2019      C2020   1.402       .  A
C2019      F2024   1.357       .  S
C2020      C2021   1.408       .  A
C2020      H2025   1.083       .  S
C2021      C2022   1.413       .  A
C2022      F2026   1.357       .  S
C2023      C2028   1.407       .  A
C2023      C2032   1.403       .  A
C2028      C2029   1.399       .  A
C2028      F2033   1.357       .  S
C2029      C2030   1.414       .  A
C2029      H2034   1.079       .  S
C2030      C2031   1.419       .  A
C2031      C2032   1.401       .  A
C2031      F2035   1.355       .  S
C2032      H2036   1.083       .  S
C2037      C2038   1.397       .  A
C2037      C2042   1.399       .  A
C2037      H2047   1.084       .  S
C2038      C2043   1.485       .  S
C2038      C2039   1.402       .  A
C2039      C2040   1.404       .  A
C2039      F2044   1.357       .  S
C2040      C2041   1.419       .  A
C2040      H2045   1.082       .  S
C2041      C2042   1.424       .  A
C2042      F2046   1.349       .  S
C2043      C2052   1.404       .  A
C2048      C2049   1.399       .  A
C2048      F2053   1.358   1_565  S
C2049      C2050   1.408       .  A
C2049      H2054   1.083       .  S
C2050      C2051   1.411       .  A
C2051      F2055   1.357       .  S
C2052      H2056   1.083       .  S
C2057      C2058   1.405       .  A
C2057      C2062   1.402       .  A
C2058      C2063   1.494       .  S
C2058      C2059   1.410       .  A
C2059      C2060   1.401       .  A
C2059      F2064   1.358       .  S
C2060      C2061   1.406       .  A
C2060      H2065   1.083       .  S
C2061      C2062   1.412       .  A
C2062      F2066   1.357       .  S
C2063      C2072   1.403       .  A
C2068      C2069   1.406       .  A
C2068      F2073   1.357       .  S
C2069      C2070   1.405       .  A
C2069      H2074   1.082       .  S
C2070      C2071   1.412       .  A
C2071      F2075   1.358       .  S
C2072      H2076   1.083       .  S
C2077      C2082   1.399       .  A
C2077      H2087   1.083   1_565  S
C2078      C2083   1.483       .  S
C2078      C2079   1.404       .  A
C2079      F2084   1.357       .  S
C2080      C2081   1.408       .  A
C2080      H2085   1.083       .  S
C2081      C2082   1.413       .  A
C2082      F2086   1.358       .  S
C2088      C2089   1.401       .  A
C2089      C2090   1.405       .  A
C2089      H2094   1.083       .  S
C2090      C2091   1.409       .  A
C2091      C2092   1.397       .  A
C2091      F2095   1.357       .  S
C2092      H2096   1.083       .  S
C2097      C2098   1.397       .  A
C2097      C2102   1.394       .  A
C2097      H2107   1.084       .  S
C2098      C2103   1.494       .  S
C2098      C2099   1.405       .  A
C2099      C2100   1.408       .  A
C2099      F2104   1.357       .  S
C2100      C2101   1.417       .  A
C2100      H2105   1.081       .  S
C2101      C2102   1.428       .  A
C2102      F2106   1.354       .  S
C2103      C2108   1.407       .  A
C2103      C2112   1.407       .  A
C2108      C2109   1.395       .  A
C2108      F2113   1.358       .  S
C2109      C2110   1.408       .  A
C2109      H2114   1.083       .  S
C2110      C2111   1.413       .  A
C2111      C2112   1.410       .  A
C2111      F2115   1.357       .  S
C2112      H2116   1.083       .  S
C2117      C2118   1.406       .  A
C2117      C2122   1.405       .  A
C2117      H2127   1.083       .  S
C2118      C2123   1.495       .  S
C2118      C2119   1.409       .  A
C2119      C2120   1.400       .  A
C2119      F2124   1.358       .  S
C2120      C2121   1.406       .  A
C2120      H2125   1.083       .  S
C2121      C2122   1.414       .  A
C2122      F2126   1.357       .  S
C2123      C2128   1.407       .  A
C2123      C2132   1.397       .  A
C2128      C2129   1.409       .  A
C2128      F2133   1.357       .  S
C2129      C2130   1.417       .  A
C2129      H2134   1.083       .  S
C2130      C2131   1.428       .  A
C2131      C2132   1.393       .  A
C2131      F2135   1.355       .  S
C2132      H2136   1.084       .  S
C2137      H2147   1.083       .  S
C2138      C2139   1.409       .  A
C2139      C2140   1.398       .  A
C2139      F2144   1.358       .  S
C2140      C2141   1.403       .  A
C2140      H2145   1.083       .  S
C2141      C2142   1.408       .  A
C2142      F2146   1.357       .  S
C2143      C2148   1.405       .  A
C2143      C2152   1.403       .  A
C2148      C2149   1.402       .  A
C2148      F2153   1.357       .  S
C2149      C2150   1.419       .  A
C2149      H2154   1.079       .  S
C2150      C2151   1.418       .  A
C2151      C2152   1.398       .  A
C2151      F2155   1.356       .  S
C2152      H2156   1.083       .  S
C2157      H2167   1.083       .  S
C2158      C2159   1.406       .  A
C2159      F2164   1.358       .  S
C2160      C2161   1.407       .  A
C2160      H2165   1.083       .  S
C2161      C2162   1.413       .  A
C2162      F2166   1.357       .  S
C2163      C2168   1.404       .  A
C2163      C2172   1.400       .  A
C2168      C2169   1.403       .  A
C2168      F2173   1.357       .  S
C2169      C2170   1.419       .  A
C2169      H2174   1.083       .  S
C2170      C2171   1.423       .  A
C2171      C2172   1.397       .  A
C2171      F2175   1.355       .  S
C2172      H2176   1.084       .  S
C2177      C2178   1.403   1_545  A
C2177      H2187   1.083       .  S
C2178      C2183   1.490       .  S
C2179      C2180   1.405       .  A
C2179      F2184   1.357       .  S
C2180      C2181   1.407       .  A
C2180      H2185   1.083       .  S
C2181      C2182   1.411       .  A
C2182      F2186   1.358       .  S
C2183      C2188   1.408       .  A
C2183      C2192   1.408       .  A
C2188      C2189   1.401       .  A
C2188      F2193   1.357       .  S
C2189      C2190   1.404       .  A
C2189      H2194   1.082       .  S
C2190      C2191   1.405       .  A
C2191      C2192   1.401       .  A
C2191      F2195   1.357       .  S
C2197      C2198   1.406       .  A
C2197      C2202   1.402       .  A
C2197      H2207   1.083       .  S
C2198      C2203   1.492       .  S
C2198      C2199   1.410       .  A
C2199      C2200   1.404       .  A
C2199      F2204   1.357       .  S
C2200      C2201   1.402       .  A
C2200      H2205   1.082       .  S
C2201      C2202   1.406       .  A
C2202      F2206   1.357       .  S
C2203      C2208   1.409       .  A
C2203      C2212   1.403       .  A
C2208      C2209   1.406       .  A
C2208      F2213   1.357       .  S
C2209      C2210   1.408       .  A
C2209      H2214   1.083       .  S
C2210      C2211   1.413       .  A
C2211      C2212   1.400       .  A
C2211      F2215   1.358       .  S
C2212      H2216   1.083       .  S
C2217      C2218   1.403       .  A
C2217      C2222   1.399       .  A
C2217      H2227   1.083       .  S
C2218      C2223   1.491   1_655  S
C2218      C2219   1.407       .  A
C2219      C2220   1.401       .  A
C2219      F2224   1.358       .  S
C2220      C2221   1.412       .  A
C2220      H2225   1.077       .  S
C2221      C2222   1.415       .  A
C2222      F2226   1.358       .  S
C2223      C2228   1.408       .  A
C2223      C2232   1.404       .  A
C2228      C2229   1.401       .  A
C2228      F2233   1.357       .  S
C2229      C2230   1.407       .  A
C2229      H2234   1.083       .  S
C2230      C2231   1.413       .  A
C2231      C2232   1.401       .  A
C2231      F2235   1.357       .  S
C2232      H2236   1.083       .  S
C2237      C2238   1.398       .  A
C2237      C2242   1.398       .  A
C2237      H2247   1.083       .  S
C2238      C2243   1.486       .  S
C2238      C2239   1.403       .  A
C2239      C2240   1.400       .  A
C2239      F2244   1.357       .  S
C2240      C2241   1.418       .  A
C2240      H2245   1.083       .  S
C2241      C2242   1.424       .  A
C2242      F2246   1.350       .  S
C2243      C2252   1.403       .  A
C2248      C2249   1.404       .  A
C2248      F2253   1.357       .  S
C2249      C2250   1.405       .  A
C2249      H2254   1.083       .  S
C2250      C2251   1.411       .  A
C2251      F2255   1.358       .  S
C2252      H2256   1.083       .  S
C2257      C2258   1.406       .  A
C2257      C2262   1.400       .  A
C2257      H2267   1.083       .  S
C2258      C2263   1.491       .  S
C2258      C2259   1.408       .  A
C2259      C2260   1.401       .  A
C2259      F2264   1.357       .  S
C2260      C2261   1.410       .  A
C2260      H2265   1.083       .  S
C2261      C2262   1.410       .  A
C2262      F2266   1.357       .  S
C2263      C2268   1.405       .  A
C2263      C2272   1.403       .  A
C2268      C2269   1.399       .  A
C2268      F2273   1.357       .  S
C2269      C2270   1.417       .  A
C2269      H2274   1.079       .  S
C2270      C2271   1.417       .  A
C2271      C2272   1.400       .  A
C2271      F2275   1.353       .  S
C2272      H2276   1.083       .  S
C2277      C2278   1.408       .  A
C2277      C2282   1.404       .  A
C2277      H2287   1.083   1_565  S
C2278      C2283   1.495   1_565  S
C2278      C2279   1.411       .  A
C2279      C2280   1.397       .  A
C2279      F2284   1.357   1_556  S
C2280      C2281   1.401       .  A
C2280      H2285   1.084       .  S
C2281      C2282   1.406       .  A
C2282      F2286   1.354       .  S
C2283      C2292   1.407   1_556  A
C2288      C2289   1.404   1_556  A
C2288      F2293   1.357       .  S
C2289      C2290   1.404       .  A
C2289      H2294   1.083       .  S
C2290      C2291   1.404       .  A
C2292      H2296   1.083   1_545  S
C2297      C2298   1.408       .  A
C2297      C2302   1.397       .  A
C2297      H2307   1.082       .  S
C2298      C2303   1.496   1_554  S
C2298      C2299   1.411       .  A
C2299      C2300   1.404       .  A
C2299      F2304   1.357       .  S
C2300      C2301   1.405       .  A
C2301      C2302   1.404       .  A
C2302      F2306   1.358       .  S
C2303      C2308   1.409       .  A
C2303      C2312   1.410       .  A
C2308      C2309   1.396       .  A
C2308      F2313   1.358   1_556  S
C2309      C2310   1.405       .  A
C2309      H2314   1.083       .  S
C2310      C2311   1.405       .  A
C2311      C2312   1.405       .  A
C2311      F2315   1.355       .  S
C2312      H2316   1.082       .  S
C2317      C2318   1.403       .  A
C2317      C2322   1.404       .  A
C2317      H2327   1.083       .  S
C2318      C2323   1.488   1_655  S
C2318      C2319   1.406       .  A
C2319      C2320   1.402       .  A
C2319      F2324   1.357   1_655  S
C2320      C2321   1.408       .  A
C2320      H2325   1.083       .  S
C2321      C2322   1.413       .  A
C2322      F2326   1.357       .  S
C2323      C2328   1.403       .  A
C2323      C2332   1.402       .  A
C2328      C2329   1.402       .  A
C2328      F2333   1.357       .  S
C2329      C2330   1.414       .  A
C2329      H2334   1.076       .  S
C2330      C2331   1.416       .  A
C2331      C2332   1.403       .  A
C2331      F2335   1.358       .  S
C2332      H2336   1.083       .  S
C2337      C2338   1.400       .  A
C2337      C2342   1.396       .  A
C2337      H2347   1.084       .  S
C2338      C2343   1.486       .  S
C2338      C2339   1.407       .  A
C2339      C2340   1.409       .  A
C2339      F2344   1.357       .  S
C2340      C2341   1.411       .  A
C2340      H2345   1.083       .  S
C2341      C2342   1.412       .  A
C2342      F2346   1.358       .  S
C2343      C2348   1.402       .  A
C2343      C2352   1.397       .  A
C2348      C2349   1.406       .  A
C2348      F2353   1.357       .  S
C2349      C2350   1.419       .  A
C2349      H2354   1.083       .  S
C2350      C2351   1.426       .  A
C2351      C2352   1.397       .  A
C2357      C2358   1.401       .  A
C2357      C2362   1.393       .  A
C2357      H2367   1.083       .  S
C2358      C2363   1.490       .  S
C2358      C2359   1.410       .  A
C2359      C2360   1.407       .  A
C2359      F2364   1.357       .  S
C2360      C2361   1.408       .  A
C2360      H2365   1.083       .  S
C2361      C2362   1.414       .  A
C2362      F2366   1.358       .  S
C2363      C2368   1.405       .  A
C2363      C2372   1.404       .  A
C2368      C2369   1.396       .  A
C2368      F2373   1.358       .  S
C2369      C2370   1.413       .  A
C2369      H2374   1.074       .  S
C2370      C2371   1.414       .  A
C2371      C2372   1.404       .  A
C2371      F2375   1.358       .  S
C2372      H2376   1.083       .  S
C2377      C2378   1.406       .  A
C2377      C2382   1.402       .  A
C2377      H2387   1.083       .  S
C2378      C2383   1.492       .  S
C2378      C2379   1.408       .  A
C2379      C2380   1.401       .  A
C2379      F2384   1.357       .  S
C2380      C2381   1.407       .  A
C2380      H2385   1.083       .  S
C2381      C2382   1.411       .  A
C2382      F2386   1.357       .  S
C2383      C2388   1.404       .  A
C2383      C2392   1.400       .  A
C2388      C2389   1.401       .  A
C2388      F2393   1.357       .  S
C2389      C2390   1.412       .  A
C2389      H2394   1.076       .  S
C2390      C2391   1.427       .  A
C2391      C2392   1.399       .  A
C2391      F2395   1.355       .  S
C2392      H2396   1.084       .  S
C2397      C2402   1.397       .  A
C2397      H2407   1.084       .  S
C2398      C2403   1.488       .  S
C2399      C2400   1.406   1_554  A
C2400      C2401   1.411       .  A
C2400      H2405   1.083       .  S
C2401      C2402   1.411   1_565  A
C2402      F2406   1.357       .  S
C2403      C2408   1.405       .  A
C2403      C2412   1.399       .  A
C2408      C2409   1.405       .  A
C2409      C2410   1.418       .  A
C2410      C2411   1.423       .  A
C2411      C2412   1.396       .  A
C2411      F2415   1.355       .  S
C2412      H2416   1.084   1_554  S
C2417      C2418   1.404   1_556  A
C2417      C2422   1.396       .  A
C2417      H2427   1.083       .  S
C2418      C2423   1.489       .  S
C2418      C2419   1.411       .  A
C2419      C2420   1.404   1_554  A
C2419      F2424   1.357       .  S
C2420      C2421   1.404       .  A
C2420      H2425   1.083       .  S
C2421      C2422   1.406       .  A
C2422      F2426   1.358       .  S
C2423      C2428   1.404       .  A
C2423      C2432   1.403       .  A
C2428      C2429   1.399       .  A
C2428      F2433   1.357       .  S
C2429      C2430   1.418       .  A
C2429      H2434   1.078       .  S
C2430      C2431   1.418       .  A
C2431      C2432   1.398       .  A
C2432      H2436   1.083       .  S
C2437      C2438   1.409       .  A
C2437      C2442   1.401       .  A
C2438      C2443   1.490       .  S
C2438      C2439   1.408       .  A
C2439      C2440   1.397       .  A
C2439      F2444   1.357       .  S
C2440      C2441   1.401       .  A
C2440      H2445   1.080       .  S
C2441      C2442   1.403       .  A
C2442      F2446   1.357       .  S
C2443      C2452   1.408       .  A
C2448      C2449   1.395       .  A
C2448      F2453   1.358       .  S
C2449      C2450   1.407       .  A
C2449      H2454   1.083       .  S
C2450      C2451   1.409       .  A
C2451      F2455   1.357       .  S
C2452      H2456   1.083       .  S
C2457      C2458   1.404       .  A
C2457      C2462   1.393       .  A
C2457      H2467   1.082       .  S
C2458      C2463   1.492       .  S
C2458      C2459   1.410       .  A
C2459      C2460   1.404       .  A
C2459      F2464   1.357       .  S
C2460      C2461   1.406       .  A
C2460      H2465   1.080       .  S
C2461      C2462   1.410       .  A
C2462      F2466   1.358       .  S
C2463      C2468   1.410       .  A
C2463      C2472   1.409       .  A
C2468      C2469   1.396       .  A
C2468      F2473   1.357       .  S
C2469      C2470   1.402       .  A
C2469      H2474   1.084       .  S
C2470      C2471   1.405       .  A
C2471      C2472   1.402       .  A
C2471      F2475   1.358       .  S
C2472      H2476   1.083       .  S
C2477      C2478   1.411       .  A
C2477      C2482   1.408       .  A
C2477      H2487   1.083       .  S
C2478      C2483   1.497       .  S
C2478      C2479   1.407       .  A
C2479      C2480   1.398       .  A
C2479      F2484   1.357       .  S
C2480      C2481   1.406       .  A
C2480      H2485   1.083       .  S
C2481      C2482   1.407       .  A
C2482      F2486   1.357       .  S
C2483      C2488   1.404       .  A
C2483      C2492   1.407       .  A
C2488      C2489   1.403       .  A
C2488      F2493   1.358       .  S
C2489      C2490   1.417       .  A
C2489      H2494   1.075       .  S
C2490      C2491   1.413       .  A
C2491      C2492   1.403       .  A
C2491      F2495   1.358       .  S
C2492      H2496   1.083       .  S
