geometry optimzed in LAMMPS
_audit_creation_date              2020-11-30 
_audit_creation_method            'lammps2cif' 
_symmetry_space_group_name_H-M    'P1' 
_symmetry_Int_Tables_number       1 
_symmetry_cell_setting            triclinic 
loop_ 
_symmetry_equiv_pos_as_xyz 
  x,y,z 
_cell_length_a                    78.95447662 
_cell_length_b                    79.17707801424429 
_cell_length_c                    37.056029659697984 
_cell_angle_alpha                 89.57335971642092 
_cell_angle_beta                  90.74671963882051 
_cell_angle_gamma                 121.28856383641714 
loop_ 
_atom_site_label 
_atom_site_type_symbol 
_atom_site_fract_x 
_atom_site_fract_y 
_atom_site_fract_z 
_atom_site_charge 
C1          C  0.01258378  0.44339974  0.67839651    -0.01400
O2          O  0.67777437  0.10916878  0.82584166    -0.56700
C3          C  0.69289492  0.14243172  0.92365981     0.75900
O4          O  0.70594431  0.17327459  0.81424819    -0.57900
C5          C  0.67017033  0.11037616  0.79628892     0.75900
C6          C  0.65172687  0.14672046  0.85245664     0.78300
Cd7        Cd  0.68568883  0.14260533  0.84712770     1.37500
O8          O  0.68685747  0.12687221  0.90519292    -0.56700
O9          O  0.65129813  0.13119683  0.86238958    -0.55500
C10         C  0.72235105  0.17434238  0.81898140     0.78200
O11         O  0.66798940  0.16063135  0.84043412    -0.57900
O12         O  0.69639097  0.15776112  0.90656867    -0.56400
O13         O  0.67128279  0.12658224  0.78980151    -0.56400
O14         O  0.72193871  0.15998277  0.83518304    -0.55500
O15         O  0.87961001  0.33342129  0.90587752    -0.56700
C16         C  0.89969143  0.35349222  0.80694562     0.75900
O17         O  0.83322751  0.31164470  0.81755020    -0.57900
C18         C  0.86450740  0.32848480  0.92496474     0.75900
C19         C  0.85399998  0.36571602  0.84901359     0.78300
Cd20       Cd  0.86387899  0.33554620  0.84884236     1.37500
O21         O  0.90012624  0.35413369  0.84100629    -0.56700
O22         O  0.86338995  0.36344111  0.87444479    -0.55500
C23         C  0.83492224  0.29683638  0.82328196     0.78200
O24         O  0.84897942  0.35399345  0.82261242    -0.57900
O25         O  0.88281769  0.34357712  0.79214351    -0.56400
O26         O  0.84921412  0.32603654  0.90864839    -0.56400
O27         O  0.85034554  0.29990767  0.84005891    -0.55500
O28         O  0.54822855  0.65037939  0.82281974    -0.56700
C29         C  0.54561162  0.68179729  0.90306872     0.75900
O30         O  0.52340198  0.69278142  0.79915215    -0.57900
C31         C  0.55199322  0.65313529  0.78954809     0.75900
C32         C  0.49284301  0.63983681  0.83210698     0.78300
Cd33       Cd  0.53385538  0.67159484  0.82849791     1.37500
O34         O  0.55439513  0.67568975  0.88354972    -0.56700
O35         O  0.50412018  0.64618106  0.85942011    -0.55500
C36         C  0.53992441  0.70878728  0.80173222     0.78200
O37         O  0.50018403  0.64843456  0.80249032    -0.57900
O38         O  0.53248516  0.68398399  0.88771182    -0.56400
O39         O  0.54868332  0.66549430  0.77420765    -0.56400
O40         O  0.55428699  0.70757687  0.81417827    -0.55500
O41         O  0.54277702  0.88914032  0.83257098    -0.56700
C42         C  0.54252823  0.85637152  0.91377767     0.75900
O43         O  0.49913874  0.84474164  0.80859495    -0.57900
C44         C  0.54775001  0.89070607  0.79989437     0.75900
C45         C  0.53715701  0.82363260  0.81054882     0.78300
Cd46       Cd  0.53063954  0.85367609  0.83901792     1.37500
O47         O  0.55061289  0.87156645  0.89378744    -0.56700
O48         O  0.55162799  0.83976234  0.82231726    -0.55500
C49         C  0.48950005  0.84242045  0.83698792     0.78200
O50         O  0.52038418  0.82205515  0.81036651    -0.57900
O51         O  0.52989016  0.84029014  0.89894510    -0.56400
O52         O  0.54640889  0.87556924  0.78563306    -0.56400
O53         O  0.49852500  0.84451651  0.86655465    -0.55500
C54         C  0.56997402  0.00279895  0.66954298    -0.01400
C55         C  0.57314548  0.56264581  0.66493573    -0.01400
O56         O  0.12522827  0.65823007  0.82088757    -0.56700
C57         C  0.15509017  0.67388888  0.92091531     0.75900
O58         O  0.17586949  0.64820593  0.83842437    -0.57900
C59         C  0.12583585  0.64890328  0.79379157     0.75900
C60         C  0.18876929  0.70216162  0.81761238     0.78300
Cd61       Cd  0.15770600  0.66539887  0.84631772     1.37500
O62         O  0.13970672  0.66518346  0.90110779    -0.56700
O63         O  0.17225559  0.70000671  0.82600000    -0.55500
C64         C  0.16331105  0.63266368  0.85472428     0.78200
O65         O  0.19051614  0.68725517  0.82120517    -0.57900
O66         O  0.17141454  0.67921065  0.90600479    -0.56400
O67         O  0.14132462  0.64816775  0.79037173    -0.56400
O68         O  0.14868009  0.63259216  0.86834915    -0.55500
O69         O  0.33707911  0.86798127  0.88788545    -0.56700
C70         C  0.36051011  0.89185505  0.79828226     0.75900
O71         O  0.36767419  0.84961096  0.80149183    -0.57900
C72         C  0.33365838  0.85344425  0.90768045     0.75900
C73         C  0.30542988  0.82183543  0.80424414     0.78300
Cd74       Cd  0.34241228  0.85358990  0.83258723     1.37500
O75         O  0.36501902  0.88951591  0.83001705    -0.56700
O76         O  0.30622905  0.83650212  0.81941047    -0.55500
C77         C  0.37367341  0.84504124  0.82958401     0.78200
O78         O  0.32171309  0.82275394  0.79962147    -0.57900
O79         O  0.34667131  0.87665948  0.78272132    -0.56400
O80         O  0.33397187  0.83935689  0.89260328    -0.56400
O81         O  0.36517678  0.84423739  0.85869922    -0.55500
C82         C  0.45074923  0.00460264  0.66954347    -0.01400
O83         O  0.35250219  0.45262748  0.82757411    -0.56700
C84         C  0.33713276  0.46824028  0.92099952     0.75900
O85         O  0.36313128  0.51207608  0.82179781    -0.57900
C86         C  0.36243970  0.46212499  0.80024168     0.75900
C87         C  0.30620079  0.47012811  0.81848781     0.78300
Cd88       Cd  0.34418317  0.47806805  0.84522291     1.37500
O89         O  0.34714973  0.46304489  0.90279729    -0.56700
O90         O  0.30825107  0.45608258  0.82936280    -0.55500
C91         C  0.37500695  0.51915973  0.84826733     0.78200
O92         O  0.32165857  0.48707996  0.81780215    -0.57900
O93         O  0.33035509  0.47746463  0.90416023    -0.56400
O94         O  0.36280872  0.47787876  0.79292008    -0.56400
O95         O  0.37228361  0.50748840  0.87407039    -0.55500
O96         O  0.14284087  0.45751352  0.90152515    -0.56700
C97         C  0.12642888  0.46151498  0.79545647     0.75900
O98         O  0.17695251  0.51374910  0.83733126    -0.57900
C99         C  0.15778083  0.46785212  0.92173981     0.75900
C100        C  0.19044620  0.47193171  0.81961883     0.78300
Cd101      Cd  0.15937643  0.47738912  0.84595265     1.37500
O102        O  0.14282428  0.47705875  0.78913326    -0.56700
O103        O  0.17399736  0.45731991  0.82943512    -0.55500
C104        C  0.16398493  0.51557678  0.85356934     0.78200
O105        O  0.19202227  0.48865943  0.81993368    -0.57900
O106        O  0.12552382  0.45215545  0.82398450    -0.56400
O107        O  0.17308783  0.48155738  0.90667347    -0.56400
O108        O  0.14961390  0.50007672  0.86690969    -0.55500
O109        O  0.47387073  0.35165150  0.84377201    -0.56700
C110        C  0.47993715  0.32326866  0.92967044     0.75900
O111        O  0.50527599  0.31503879  0.82997756    -0.57900
C112        C  0.47112528  0.34880890  0.81021947     0.75900
C113        C  0.52906251  0.36833338  0.85601783     0.78300
Cd114      Cd  0.49043046  0.33312317  0.85463043     1.37500
O115        O  0.46705976  0.32170788  0.90695394    -0.56700
O116        O  0.51554653  0.36555098  0.87746254    -0.55500
C117        C  0.48968345  0.29810291  0.83049587     0.78200
O118        O  0.52500558  0.35460524  0.83393142    -0.57900
O119        O  0.49690330  0.32871311  0.91752479    -0.56400
O120        O  0.47555175  0.33697717  0.79670925    -0.56400
O121        O  0.47395199  0.29730176  0.84027805    -0.55500
O122        O  0.47426860  0.11980952  0.82179688    -0.56700
C123        C  0.49071587  0.15011775  0.92223147     0.75900
O124        O  0.53747104  0.16943253  0.84280439    -0.57900
C125        C  0.48391910  0.12070209  0.79403720     0.75900
C126        C  0.49586536  0.18422530  0.82316175     0.78300
Cd127      Cd  0.50088615  0.15223753  0.84704104     1.37500
O128        O  0.48107888  0.13507069  0.90218364    -0.56700
O129        O  0.48124442  0.16755763  0.83202208    -0.55500
C130        C  0.53852411  0.15524351  0.85627015     0.78200
O131        O  0.51259012  0.18567323  0.82240118    -0.57900
O132        O  0.50446060  0.16551828  0.90749274    -0.56400
O133        O  0.50037182  0.13654877  0.78959532    -0.56400
O134        O  0.52246297  0.14023960  0.86624253    -0.55500
C135        C  0.45253232  0.43974386  0.67801682    -0.01400
O136        O  0.87951056  0.54452840  0.90287639    -0.56700
C137        C  0.90061342  0.54052778  0.80792974     0.75900
O138        O  0.84995922  0.48892417  0.82371649    -0.57900
C139        C  0.86491288  0.53347418  0.92288906     0.75900
C140        C  0.83405054  0.53010999  0.82307783     0.78300
Cd141      Cd  0.86434003  0.52292679  0.84871932     1.37500
O142        O  0.90025231  0.53726000  0.84139707    -0.56700
O143        O  0.84996177  0.54387358  0.83702712    -0.55500
C144        C  0.85403792  0.48225549  0.85145785     0.78200
O145        O  0.83281094  0.51365684  0.81890235    -0.57900
O146        O  0.88451869  0.53705057  0.79346406    -0.56400
O147        O  0.85058924  0.51824586  0.90846723    -0.56400
O148        O  0.86243086  0.49414809  0.87732531    -0.55500
O149        O  0.67516573  0.55475954  0.82212105    -0.56700
C150        C  0.68834579  0.53841455  0.92054962     0.75900
O151        O  0.66255375  0.49297956  0.82961369    -0.57900
C152        C  0.66564027  0.54502580  0.79441245     0.75900
C153        C  0.71934245  0.53445230  0.82174658     0.78300
Cd154      Cd  0.68177290  0.52859660  0.84474525     1.37500
O155        O  0.68119444  0.54609060  0.90000882    -0.56700
O156        O  0.71814431  0.54871685  0.83381081    -0.55500
C157        C  0.64838259  0.48892563  0.85048302     0.78200
O158        O  0.70325788  0.51811211  0.81831745    -0.57900
O159        O  0.69281386  0.52688306  0.90595555    -0.56400
O160        O  0.66510616  0.52905197  0.78899634    -0.56400
O161        O  0.64996411  0.50292964  0.86928312    -0.55500
C162        C  0.00905667  0.56097531  0.67161172    -0.01400
O163        O  0.67934679  0.12614260  0.19379695    -0.56700
C164        C  0.65503667  0.10373074  0.28661426     0.75900
O165        O  0.69580717  0.17128588  0.28121699    -0.57900
C166        C  0.68354342  0.14074600  0.17354538     0.75900
C167        C  0.64469219  0.15176065  0.24688502     0.78300
Cd168      Cd  0.67433495  0.14098189  0.24823962     1.37500
O169        O  0.65050751  0.10550986  0.25464579    -0.56700
O170        O  0.64742353  0.14318613  0.22104341    -0.55500
C171        C  0.71186765  0.17187883  0.27562090     0.78200
O172        O  0.65563919  0.15542887  0.27448997    -0.57900
O173        O  0.66954299  0.11894704  0.30079132    -0.56400
O174        O  0.68408538  0.15540929  0.18805977    -0.56400
O175        O  0.71066147  0.15732093  0.25915251    -0.55500
O176        O  0.89337526  0.33793767  0.27127888    -0.56700
C177        C  0.86087505  0.32431236  0.17632477     0.75900
O178        O  0.82698350  0.30708038  0.27872395    -0.57900
C179        C  0.89349342  0.34610136  0.30060735     0.75900
C180        C  0.85388208  0.36361031  0.24856156     0.78300
Cd181      Cd  0.85951818  0.33037304  0.25265668     1.37500
O182        O  0.87613091  0.33008849  0.19605513    -0.56700
O183        O  0.86633887  0.36237439  0.22943979    -0.55500
C184        C  0.82871568  0.29209824  0.27783545     0.78200
O185        O  0.84364643  0.34933570  0.26974874    -0.57900
O186        O  0.84520287  0.32066965  0.19205174    -0.56400
O187        O  0.87782906  0.34584361  0.30821292    -0.56400
O188        O  0.84509132  0.29484526  0.26699462    -0.55500
C189        C  0.56783656  0.56520481  0.41148437    -0.01400
O190        O  0.54673183  0.66815840  0.17364549    -0.56700
C191        C  0.54171228  0.65046619  0.27970952     0.75900
O192        O  0.51387412  0.68636172  0.25040738    -0.57900
C193        C  0.53876369  0.67465212  0.15227775     0.75900
C194        C  0.48751781  0.63164294  0.21710186     0.78300
Cd195      Cd  0.52629762  0.66606417  0.22660568     1.37500
O196        O  0.55152757  0.65900745  0.25167408    -0.56700
O197        O  0.50263430  0.63320240  0.20245734    -0.55500
C198        C  0.53041934  0.70227513  0.25352827     0.78200
O199        O  0.49009063  0.64630670  0.23510217    -0.57900
O200        O  0.52581887  0.65034576  0.28392561    -0.56400
O201        O  0.52577823  0.67751791  0.16544448    -0.56400
O202        O  0.54558221  0.70157632  0.24542893    -0.55500
O203        O  0.54483735  0.86849045  0.18302706    -0.56700
C204        C  0.54163265  0.88288135  0.28837710     0.75900
O205        O  0.48934948  0.83392599  0.25019937    -0.57900
C206        C  0.53641776  0.85347262  0.16264924     0.75900
C207        C  0.53025894  0.81860259  0.26160768     0.78300
Cd208      Cd  0.52498817  0.85036887  0.23704444     1.37500
O209        O  0.55082819  0.88410763  0.25978325    -0.56700
O210        O  0.54503864  0.83546396  0.25423993    -0.55500
C211        C  0.48591359  0.84426949  0.22861219     0.78200
O212        O  0.51342919  0.81684332  0.25963722    -0.57900
O213        O  0.52586275  0.86657511  0.29396483    -0.56400
O214        O  0.52315946  0.83748600  0.17670770    -0.56400
O215        O  0.50026277  0.85683338  0.20981787    -0.55500
C216        C  0.56056875  0.99332949  0.41630694    -0.01400
C217        C  0.00807907  0.43904028  0.42393780    -0.01400
O218        O  0.89425319  0.53748607  0.25488801    -0.56700
C219        C  0.85922502  0.53067869  0.17145136     0.75900
O220        O  0.84489157  0.48571322  0.27146294    -0.57900
C221        C  0.89415916  0.53749444  0.28897174     0.75900
C222        C  0.82738558  0.52662509  0.26853001     0.78300
Cd223      Cd  0.85810173  0.51963296  0.24609547     1.37500
O224        O  0.87415573  0.54058029  0.19190931    -0.56700
O225        O  0.84474287  0.54101242  0.26262704    -0.55500
C226        C  0.85089581  0.47984162  0.24567787     0.78200
O227        O  0.82481226  0.50950296  0.26661661    -0.57900
O228        O  0.84410713  0.51621832  0.18560595    -0.56400
O229        O  0.87751079  0.53095862  0.30372063    -0.56400
O230        O  0.85924757  0.49185940  0.22006092    -0.55500
O231        O  0.67681655  0.54315869  0.18987294    -0.56700
C232        C  0.65710110  0.54425767  0.28306753     0.75900
O233        O  0.65125247  0.49467810  0.28163865    -0.57900
C234        C  0.68201485  0.53354485  0.17050337     0.75900
C235        C  0.71160659  0.52995789  0.27035948     0.78300
Cd236      Cd  0.67420698  0.52453639  0.24641758     1.37500
O237        O  0.65234608  0.53788539  0.25114067    -0.56700
O238        O  0.71075445  0.54456029  0.25853125    -0.55500
C239        C  0.64258134  0.48398979  0.25441015     0.78200
O240        O  0.69530102  0.51386877  0.27390426    -0.57900
O241        O  0.67114444  0.54318002  0.29752996    -0.56400
O242        O  0.68358401  0.52017855  0.18612902    -0.56400
O243        O  0.64859178  0.49190468  0.22385082    -0.55500
C244        C  0.00587463  0.55763131  0.42000137    -0.01400
O245        O  0.34522097  0.44663523  0.27164311    -0.56700
C246        C  0.33056531  0.46108413  0.17166973     0.75900
O247        O  0.31572688  0.48183923  0.27476443    -0.57900
C248        C  0.35411575  0.45634238  0.29981294     0.75900
C249        C  0.37022784  0.51054521  0.23546451     0.78300
Cd250      Cd  0.33707891  0.47127123  0.24755854     1.37500
O251        O  0.33694472  0.45281540  0.19257592    -0.56700
O252        O  0.36936004  0.49543248  0.22243389    -0.55500
C253        C  0.29947287  0.46559322  0.27169508     0.78200
O254        O  0.35575679  0.50768559  0.25444522    -0.57900
O255        O  0.32626239  0.47275855  0.18613923    -0.56400
O256        O  0.35370495  0.47184965  0.30525530    -0.56400
O257        O  0.30042307  0.45125237  0.25919312    -0.55500
O258        O  0.11734170  0.46269872  0.25555462    -0.56700
C259        C  0.15260002  0.46588728  0.17230117     0.75900
O260        O  0.16762150  0.50896618  0.27061906    -0.57900
C261        C  0.11648519  0.45792336  0.28833912     0.75900
C262        C  0.18344878  0.46790382  0.27286808     0.78300
Cd263      Cd  0.15288435  0.47488924  0.24717738     1.37500
O264        O  0.13815881  0.45405713  0.19197878    -0.56700
O265        O  0.16729563  0.45414457  0.25950693    -0.55500
C266        C  0.16213797  0.51489955  0.24358815     0.78200
O267        O  0.18497241  0.48452648  0.27661301    -0.57900
O268        O  0.16684721  0.48077700  0.18762791    -0.56400
O269        O  0.13203037  0.45949782  0.30189460    -0.56400
O270        O  0.15322007  0.50267239  0.21845938    -0.55500
O271        O  0.46917010  0.35178736  0.25854813    -0.56700
C272        C  0.47578797  0.32265727  0.18013922     0.75900
O273        O  0.51454342  0.35568028  0.28894739    -0.57900
C274        C  0.46456857  0.34884958  0.29151539     0.75900
C275        C  0.47797283  0.29331971  0.28142498     0.78300
Cd276      Cd  0.48363997  0.33068616  0.25630745     1.37500
O277        O  0.46253339  0.32230814  0.19970184    -0.56700
O278        O  0.46384674  0.29416743  0.26685719    -0.55500
C279        C  0.52425084  0.36327651  0.26042035     0.78200
O280        O  0.49385918  0.30963458  0.28689191    -0.57900
O281        O  0.49169878  0.32652933  0.19588967    -0.56400
O282        O  0.46719584  0.33624461  0.30766333    -0.56400
O283        O  0.51545300  0.35555288  0.23101905    -0.55500
O284        O  0.47464666  0.13293940  0.19168963    -0.56700
C285        C  0.47370991  0.11485023  0.29692457     0.75900
O286        O  0.52610553  0.16532873  0.27075951    -0.57900
C287        C  0.48401827  0.14844874  0.17263925     0.75900
C288        C  0.48331418  0.17939411  0.27401252     0.78300
Cd289      Cd  0.49135558  0.14952754  0.24953820     1.37500
O290        O  0.46532361  0.11460026  0.26738601    -0.56700
O291        O  0.46982417  0.16332470  0.26024815    -0.55500
C292        C  0.53159267  0.15865879  0.24547621     0.78200
O293        O  0.50008588  0.18121657  0.27825574    -0.57900
O294        O  0.48942307  0.13088102  0.30462803    -0.56400
O295        O  0.49606964  0.16419933  0.18915488    -0.56400
O296        O  0.51867053  0.14810173  0.22204539    -0.55500
C297        C  0.44926016  0.44052202  0.42343603    -0.01400
O298        O  0.12118498  0.65722085  0.26855335    -0.56700
C299        C  0.15311919  0.67173144  0.17099740     0.75900
O300        O  0.18609770  0.68574625  0.27648075    -0.57900
C301        C  0.12054909  0.64646249  0.29460261     0.75900
C302        C  0.16058626  0.63126368  0.24053317     0.78300
Cd303      Cd  0.15402498  0.66348159  0.24657186     1.37500
O304        O  0.13718480  0.66305390  0.18881031    -0.56700
O305        O  0.14867343  0.63292911  0.21982083    -0.55500
C306        C  0.18489164  0.70101986  0.27382530     0.78200
O307        O  0.17015622  0.64491801  0.26330603    -0.57900
O308        O  0.16897898  0.67679432  0.18823408    -0.56400
O309        O  0.13533600  0.64453022  0.29864613    -0.56400
O310        O  0.16893943  0.69871538  0.26082390    -0.55500
O311        O  0.33212471  0.86772180  0.17723334    -0.56700
C312        C  0.35290733  0.88950265  0.27548511     0.75900
O313        O  0.31587042  0.82212985  0.26333405    -0.57900
C314        C  0.32860113  0.85308559  0.15791454     0.75900
C315        C  0.37063426  0.84885702  0.23278976     0.78300
Cd316      Cd  0.33698576  0.85369448  0.23360842     1.37500
O317        O  0.35561592  0.88944277  0.24201831    -0.56700
O318        O  0.36813454  0.85947783  0.21047063    -0.55500
C319        C  0.29985837  0.82197241  0.25924545     0.78200
O320        O  0.35736064  0.83998616  0.25628852    -0.57900
O321        O  0.34132281  0.87294286  0.28988617    -0.56400
O322        O  0.32772745  0.83851392  0.17394126    -0.56400
O323        O  0.30095271  0.83699684  0.24443683    -0.55500
C324        C  0.44295485  0.99772701  0.41557434    -0.01400
C325        C  0.37615946  0.92679403  0.34075873     0.30800
C326        C  0.38095621  0.93496831  0.37571702    -0.35500
C327        C  0.39894234  0.95315938  0.37927138     0.16800
C328        C  0.41115342  0.96251520  0.35034762     0.22600
C329        C  0.40624182  0.95459832  0.31555115    -0.33600
C330        C  0.38838407  0.93658177  0.31200666     0.16700
O331        O  0.36122258  0.90909095  0.33160385    -0.25600
C332        C  0.36391785  0.90782055  0.29650964     0.06500
C333        C  0.38046572  0.92456776  0.28294415    -0.30500
O334        O  0.42756573  0.97881725  0.35954817    -0.22300
C335        C  0.42616546  0.98024399  0.39502867    -0.02300
C336        C  0.40848111  0.96461942  0.40884062    -0.16800
H337        H  0.37170666  0.92736940  0.39866878     0.21200
H338        H  0.41599966  0.96173975  0.29293090     0.19600
H339        H  0.38663775  0.92689155  0.25615670     0.19500
H340        H  0.40344630  0.96194905  0.43645246     0.15400
C341        C  0.22046854  0.75125640  0.27919325     0.30800
C342        C  0.22894833  0.77112077  0.26900229    -0.35500
C343        C  0.24956666  0.78302245  0.27321032     0.16800
C344        C  0.26100201  0.77586907  0.28686172     0.22600
C345        C  0.25248431  0.75612808  0.29774808    -0.33600
C346        C  0.23191291  0.74418793  0.29319262     0.16700
O347        O  0.20201900  0.73704694  0.27288915    -0.25600
C348        C  0.20163535  0.72069781  0.28295728     0.06500
C349        C  0.21976478  0.72424864  0.29614627    -0.30500
O350        O  0.28011187  0.78892808  0.28498997    -0.22300
C351        C  0.28097359  0.80468795  0.27014168    -0.02300
C352        C  0.26242588  0.80193966  0.26236274    -0.16800
H353        H  0.22023400  0.77660980  0.25657462     0.21200
H354        H  0.26144119  0.75020124  0.30705658     0.19600
H355        H  0.22381331  0.71354626  0.30372184     0.19500
H356        H  0.25899205  0.81194987  0.24866782     0.15400
C357        C  0.45736225  0.04720882  0.39086794     0.30800
C358        C  0.47024877  0.06779239  0.38917977    -0.35500
C359        C  0.46587857  0.07775489  0.36254780     0.16800
C360        C  0.44981238  0.06820758  0.33933909     0.22600
C361        C  0.43650267  0.04772518  0.34198082    -0.33600
C362        C  0.44104182  0.03776171  0.36832565     0.16700
O363        O  0.45993399  0.03474389  0.41073677    -0.25600
C364        C  0.44509143  0.01690777  0.40080001     0.06500
C365        C  0.43265867  0.01812029  0.37487569    -0.30500
O366        O  0.44989551  0.08002202  0.31377078    -0.22300
C367        C  0.46618114  0.09741326  0.32085912    -0.02300
C368        C  0.47654455  0.09686615  0.35111163    -0.16800
H369        H  0.48342355  0.07535317  0.40595915     0.21200
H370        H  0.42416488  0.03991699  0.32335378     0.19600
H371        H  0.41968352  0.00629698  0.36146511     0.19500
H372        H  0.49061771  0.10855818  0.36167174     0.15400
C373        C  0.45243237  0.37394832  0.35358104     0.30800
C374        C  0.45053285  0.37993129  0.38811607    -0.35500
C375        C  0.45013423  0.39742689  0.38972330     0.16800
C376        C  0.45138034  0.40821292  0.35945576     0.22600
C377        C  0.45292560  0.40207020  0.32486816    -0.33600
C378        C  0.45342601  0.38464079  0.32324426     0.16700
O379        O  0.45509891  0.35921030  0.34618561    -0.25600
C380        C  0.45772971  0.36041199  0.31063477     0.06500
C381        C  0.45667530  0.37586101  0.29491553    -0.30500
O382        O  0.45144453  0.42445262  0.36728211    -0.22300
C383        C  0.45022221  0.42423313  0.40318964    -0.02300
C384        C  0.44925233  0.40755427  0.41847267    -0.16800
H385        H  0.45011756  0.37188622  0.41220690     0.21200
H386        H  0.45428849  0.41064057  0.30096654     0.19600
H387        H  0.45937104  0.38077303  0.26709929     0.19500
H388        H  0.44803441  0.40335176  0.44660620     0.15400
C389        C  0.46741995  0.24447341  0.28579410     0.30800
C390        C  0.45735788  0.22432651  0.27654820    -0.35500
C391        C  0.46773706  0.21453769  0.28272249     0.16800
C392        C  0.48670554  0.22392465  0.29703196     0.22600
C393        C  0.49660832  0.24393531  0.30685680    -0.33600
C394        C  0.48625942  0.25370482  0.30064547     0.16700
O395        O  0.46142805  0.25697405  0.27882726    -0.25600
C396        C  0.47660343  0.27439807  0.28957516     0.06500
C397        C  0.49237010  0.27318236  0.30357327    -0.30500
O398        O  0.49436771  0.21255625  0.29725189    -0.22300
C399        C  0.48008992  0.19558089  0.28315122    -0.02300
C400        C  0.46312888  0.19591555  0.27381496    -0.16800
H401        H  0.44284671  0.21703604  0.26383543     0.21200
H402        H  0.51169769  0.25159921  0.31701886     0.19600
H403        H  0.50679626  0.28515026  0.31217360     0.19500
H404        H  0.44986450  0.18453571  0.26032996     0.15400
C405        C  0.16939552  0.59271836  0.25408669     0.30800
C406        C  0.17573503  0.58147305  0.27279206    -0.35500
C407        C  0.17103614  0.56359911  0.25654077     0.16800
C408        C  0.16083478  0.55728185  0.22412044     0.22600
C409        C  0.15445239  0.56846588  0.20550982    -0.33600
C410        C  0.15908259  0.58626493  0.22180003     0.16700
O411        O  0.17172353  0.60966364  0.26467200    -0.25600
C412        C  0.16273680  0.61401332  0.23883484     0.06500
C413        C  0.15454890  0.59997014  0.21157200    -0.30500
O414        O  0.15713184  0.53969234  0.21474431    -0.22300
C415        C  0.16501490  0.53464536  0.24148967    -0.02300
C416        C  0.17395866  0.54894698  0.26821915    -0.16800
H417        H  0.18345853  0.58615307  0.29848995     0.21200
H418        H  0.14609704  0.56343790  0.18045303     0.19600
H419        H  0.14621086  0.59976746  0.18797539     0.19500
H420        H  0.18078283  0.54824439  0.29325167     0.15400
C421        C  0.40737660  0.43529087  0.37495548     0.30800
C422        C  0.39309332  0.42818100  0.34709770    -0.35500
C423        C  0.38255340  0.43788037  0.34245588     0.16800
C424        C  0.38589708  0.45358388  0.36369822     0.22600
C425        C  0.40005481  0.46055099  0.39188247    -0.33600
C426        C  0.41057154  0.45079054  0.39655468     0.16700
O427        O  0.41974923  0.42922663  0.38229692    -0.25600
C428        C  0.43121673  0.44094928  0.40906716     0.06500
C429        C  0.42590795  0.45453808  0.41927485    -0.30500
O430        O  0.37560273  0.46154751  0.35259748    -0.22300
C431        C  0.36540902  0.45071755  0.32402233    -0.02300
C432        C  0.36908284  0.43570598  0.31663039    -0.16800
H433        H  0.39083437  0.41632744  0.32944012     0.21200
H434        H  0.40314919  0.47314242  0.40817600     0.19600
H435        H  0.43289023  0.46606070  0.43940419     0.19500
H436        H  0.36361438  0.42551610  0.29410292     0.15400
C437        C  0.25019983  0.45402728  0.27993985     0.30800
C438        C  0.22971747  0.44353603  0.27246736    -0.35500
C439        C  0.21963848  0.45341808  0.27993067     0.16800
C440        C  0.22903451  0.47230907  0.29391801     0.22600
C441        C  0.24940533  0.48262644  0.30209643    -0.33600
C442        C  0.25949154  0.47280201  0.29442163     0.16700
O443        O  0.26285893  0.44850257  0.27151120    -0.25600
C444        C  0.28049058  0.46394183  0.28079682     0.06500
C445        C  0.27922806  0.47940605  0.29536713    -0.30500
O446        O  0.21729433  0.47956599  0.29499425    -0.22300
C447        C  0.20008094  0.46509047  0.28178295    -0.02300
C448        C  0.20064171  0.44841513  0.27223121    -0.16800
H449        H  0.22235196  0.42910274  0.25994594     0.21200
H450        H  0.25706795  0.49767776  0.31190173     0.19600
H451        H  0.29124260  0.49389240  0.30336412     0.19500
H452        H  0.18916585  0.43514704  0.25904026     0.15400
C453        C  0.07444956  0.62191046  0.33776418     0.30800
C454        C  0.05403601  0.61424190  0.34179637    -0.35500
C455        C  0.04453920  0.59952983  0.36830750     0.16800
C456        C  0.05443191  0.59294120  0.38948683     0.22600
C457        C  0.07480347  0.60077368  0.38584983    -0.33600
C458        C  0.08425437  0.61532783  0.35932545     0.16700
O459        O  0.08603521  0.63450222  0.31273452    -0.25600
C460        C  0.10342814  0.63594485  0.31860524     0.06500
C461        C  0.10314256  0.62441955  0.34732230    -0.30500
O462        O  0.04252504  0.57818864  0.41076752    -0.22300
C463        C  0.02453504  0.57492730  0.40314614    -0.02300
C464        C  0.02507208  0.58817008  0.37720906    -0.16800
H465        H  0.04596919  0.61883710  0.32452848     0.21200
H466        H  0.08262353  0.59532791  0.40168825     0.19600
H467        H  0.11491895  0.62223583  0.35673589     0.19500
H468        H  0.01288509  0.58903171  0.36564405     0.15400
C469        C  0.57059437  0.40570233  0.27827707     0.30800
C470        C  0.58527467  0.42160061  0.29867860    -0.35500
C471        C  0.60111060  0.43665601  0.27908436     0.16800
C472        C  0.60239876  0.43602104  0.24203115     0.22600
C473        C  0.58795100  0.42004467  0.22180177    -0.33600
C474        C  0.57213405  0.40511773  0.24128886     0.16700
O475        O  0.55375629  0.39072802  0.29044431    -0.25600
C476        C  0.54453048  0.38050644  0.26077433     0.06500
C477        C  0.55531027  0.38875206  0.22953083    -0.30500
O478        O  0.61747092  0.45229686  0.22878324    -0.22300
C479        C  0.62604964  0.46353927  0.25763626    -0.02300
C480        C  0.61664434  0.45455446  0.28977707    -0.16800
H481        H  0.58405140  0.42253758  0.32758928     0.21200
H482        H  0.58858978  0.41966159  0.19263525     0.19600
H483        H  0.55097581  0.38381798  0.20192928     0.19500
H484        H  0.62013153  0.46072854  0.31673113     0.15400
C485        C  0.96055798  0.55208786  0.38651759     0.30800
C486        C  0.94266359  0.55189371  0.38789769    -0.35500
C487        C  0.93251128  0.54887890  0.35487512     0.16800
C488        C  0.93965317  0.54649073  0.32271574     0.22600
C489        C  0.95735658  0.54642704  0.32142932    -0.33600
C490        C  0.96729778  0.54913152  0.35443484     0.16700
O491        O  0.97271402  0.55510465  0.41388268    -0.25600
C492        C  0.98742276  0.55394767  0.39917522     0.06500
C493        C  0.98453612  0.54990345  0.36226569    -0.30500
O494        O  0.92758649  0.54329624  0.29525705    -0.22300
C495        C  0.91236411  0.54343029  0.30989487    -0.02300
C496        C  0.91458406  0.54682653  0.34696177    -0.16800
H497        H  0.93699157  0.55383352  0.41299488     0.21200
H498        H  0.96289301  0.54419956  0.29642764     0.19600
H499        H  0.99423514  0.54851983  0.34372218     0.19500
H500        H  0.90416891  0.54695982  0.36550673     0.15400
C501        C  0.76063618  0.54058715  0.27624534     0.30800
C502        C  0.78126414  0.55148513  0.27086732    -0.35500
C503        C  0.79110327  0.54100633  0.27523571     0.16800
C504        C  0.78123113  0.52117471  0.28398666     0.22600
C505        C  0.76075599  0.51039205  0.28966646    -0.33600
C506        C  0.75101355  0.52085327  0.28560210     0.16700
O507        O  0.74819576  0.54688208  0.27111870    -0.25600
C508        C  0.73047505  0.53096661  0.27766794     0.06500
C509        C  0.73140434  0.51442222  0.28690388    -0.30500
O510        O  0.79287255  0.51386515  0.28410043    -0.22300
C511        C  0.81057031  0.52918126  0.27571140    -0.02300
C512        C  0.81043224  0.54653616  0.26999732    -0.16800
H513        H  0.78899096  0.56686324  0.26278857     0.21200
H514        H  0.75286488  0.49475578  0.29576153     0.19600
H515        H  0.71925664  0.49951232  0.29175950     0.19500
H516        H  0.82251972  0.56079049  0.26128875     0.15400
C517        C  0.01662523  0.48791174  0.42829737     0.30800
C518        C  0.02558379  0.50738435  0.44131114    -0.35500
C519        C  0.01703562  0.51826064  0.42953692     0.16800
C520        C  0.00084112  0.51053415  0.40656939     0.22600
C521        C  0.99201013  0.49115195  0.39340023    -0.33600
C522        C  0.00049049  0.48026788  0.40523514     0.16700
O523        O  0.02162986  0.47484060  0.43686302    -0.25600
C524        C  0.00839117  0.45842593  0.41938650     0.06500
C525        C  0.99503359  0.46117158  0.39885279    -0.30500
O526        O  0.99483785  0.52301506  0.39989266    -0.22300
C527        C  0.00740354  0.53916472  0.41860487    -0.02300
C528        C  0.02153789  0.53692377  0.43764249    -0.16800
H529        H  0.03810752  0.51350297  0.45980398     0.21200
H530        H  0.97916440  0.48485895  0.37568548     0.19600
H531        H  0.98285541  0.45063403  0.38200472     0.19500
H532        H  0.03315573  0.54741596  0.45553227     0.15400
C533        C  0.07128481  0.44819162  0.32346096     0.30800
C534        C  0.05342817  0.44800878  0.32306413    -0.35500
C535        C  0.04409850  0.44494866  0.35642594     0.16800
C536        C  0.05154502  0.44192194  0.38800613     0.22600
C537        C  0.06940416  0.44200285  0.38841925    -0.33600
C538        C  0.07893538  0.44533390  0.35504893     0.16700
O539        O  0.08308951  0.45215600  0.29574741    -0.25600
C540        C  0.09855678  0.45183686  0.30958945     0.06500
C541        C  0.09677843  0.44762055  0.34639687    -0.30500
O542        O  0.04037649  0.43955487  0.41611196    -0.22300
C543        C  0.02560082  0.44123393  0.40257308    -0.02300
C544        C  0.02735920  0.44470405  0.36540371    -0.16800
H545        H  0.04748742  0.45061507  0.29855773     0.21200
H546        H  0.07565404  0.44004529  0.41315573     0.19600
H547        H  0.10747923  0.44723325  0.36441004     0.19500
H548        H  0.01748534  0.44659082  0.34755939     0.15400
C549        C  0.49207037  0.00616960  0.41699237     0.30800
C550        C  0.51199374  0.01547391  0.42818406    -0.35500
C551        C  0.52199336  0.00564784  0.41967975     0.16800
C552        C  0.51312678  0.98793831  0.40129153     0.22600
C553        C  0.49323743  0.97869873  0.38995358    -0.33600
C554        C  0.48322835  0.98850360  0.39856390     0.16700
O555        O  0.47957328  0.01208456  0.42403145    -0.25600
C556        C  0.46234588  0.99806231  0.40981686     0.06500
C557        C  0.46395275  0.98301226  0.39360465    -0.30500
O558        O  0.52512291  0.98110393  0.39712972    -0.22300
C559        C  0.54195999  0.99461101  0.41319140    -0.02300
C560        C  0.54076836  0.01021093  0.42758592    -0.16800
H561        H  0.51906891  0.02916192  0.44321939     0.21200
H562        H  0.48593975  0.96463550  0.37607320     0.19600
H563        H  0.45242715  0.96932205  0.38168165     0.19500
H564        H  0.55212996  0.02293909  0.44222053     0.15400
C565        C  0.44503194  0.84933303  0.21336460     0.30800
C566        C  0.43473809  0.85775531  0.19837251    -0.35500
C567        C  0.41648309  0.85201814  0.21404121     0.16800
C568        C  0.40883029  0.83896053  0.24262440     0.22600
C569        C  0.41911503  0.83046751  0.25756300    -0.33600
C570        C  0.43735653  0.83611179  0.24170914     0.16700
O571        O  0.46280311  0.85337314  0.20406078    -0.25600
C572        C  0.46651574  0.84250735  0.22657417     0.06500
C573        C  0.45117399  0.83136385  0.25044089    -0.30500
O574        O  0.39159109  0.83596426  0.25330334    -0.22300
C575        C  0.38824085  0.84722174  0.23110505    -0.02300
C576        C  0.40320566  0.85751682  0.20619586    -0.16800
H577        H  0.44067047  0.86825665  0.17634942     0.21200
H578        H  0.41340955  0.82034807  0.28015520     0.19600
H579        H  0.45072046  0.82193806  0.27217794     0.19500
H580        H  0.40418030  0.86767777  0.18544067     0.15400
C581        C  0.54470589  0.91686929  0.35185286     0.30800
C582        C  0.53675376  0.92369317  0.37756242    -0.35500
C583        C  0.54715667  0.94414378  0.38347603     0.16800
C584        C  0.56439044  0.95701678  0.36575223     0.22600
C585        C  0.57251472  0.95019324  0.34018495    -0.33600
C586        C  0.56193087  0.92969224  0.33384760     0.16700
O587        O  0.53614712  0.89864015  0.33957620    -0.25600
C588        C  0.54789668  0.89964540  0.31317753     0.06500
C589        C  0.56432517  0.91860151  0.30855453    -0.30500
O590        O  0.57122708  0.97559901  0.37462084    -0.22300
C591        C  0.55816648  0.97477191  0.39832288    -0.02300
C592        C  0.54282829  0.95538548  0.40463416    -0.16800
H593        H  0.52292609  0.91379569  0.39096608     0.21200
H594        H  0.58573724  0.96024911  0.32528809     0.19600
H595        H  0.57553365  0.92371114  0.28792692     0.19500
H596        H  0.52996666  0.95021597  0.42140754     0.15400
C597        C  0.41532964  0.55230525  0.21168208     0.30800
C598        C  0.43441432  0.56257169  0.19718048    -0.35500
C599        C  0.44568142  0.58280689  0.20489090     0.16800
C600        C  0.43865304  0.59233354  0.22538023     0.22600
C601        C  0.41944529  0.58210619  0.23945869    -0.33600
C602        C  0.40819288  0.56183049  0.23188391     0.16700
O603        O  0.40277346  0.53310918  0.20977259    -0.25600
C604        C  0.38740091  0.53030135  0.22895445     0.06500
C605        C  0.38986739  0.54763326  0.24322599    -0.30500
O606        O  0.45223669  0.61100131  0.23142245    -0.22300
C607        C  0.46809255  0.61342919  0.21444358    -0.02300
C608        C  0.46486489  0.59643391  0.19733378    -0.16800
H609        H  0.44031308  0.55516024  0.18196303     0.21200
H610        H  0.41390970  0.58931957  0.25621675     0.19600
H611        H  0.37989660  0.54939225  0.26041212     0.19500
H612        H  0.47541501  0.59421797  0.18295398     0.15400
C613        C  0.52339361  0.77192787  0.27830678     0.30800
C614        C  0.51205638  0.75130319  0.28165472    -0.35500
C615        C  0.52217762  0.74129680  0.27671415     0.16800
C616        C  0.54215864  0.75087852  0.26926923     0.22600
C617        C  0.55362090  0.77160184  0.26670182    -0.33600
C618        C  0.54344141  0.78163954  0.27137446     0.16700
O619        O  0.51640009  0.78384685  0.27757209    -0.25600
C620        C  0.53214606  0.80149077  0.27030976     0.06500
C621        C  0.54944241  0.80106580  0.26645959    -0.30500
O622        O  0.54806031  0.73843771  0.26178838    -0.22300
C623        C  0.53162754  0.72070291  0.26454870    -0.02300
C624        C  0.51513765  0.72161761  0.27401927    -0.16800
H625        H  0.49621328  0.74351888  0.28573986     0.21200
H626        H  0.56911883  0.77926958  0.25955696     0.19600
H627        H  0.56393086  0.81300977  0.25848546     0.19500
H628        H  0.49991838  0.70956953  0.27620239     0.15400
C629        C  0.52666671  0.51606927  0.40006550     0.30800
C630        C  0.51689569  0.49623171  0.38909788    -0.35500
C631        C  0.49742022  0.48411827  0.40128113     0.16800
C632        C  0.48823163  0.49102501  0.42285921     0.22600
C633        C  0.49799246  0.51085770  0.43383802    -0.33600
C634        C  0.51743152  0.52298779  0.42152417     0.16700
O635        O  0.54512817  0.52978331  0.39282300    -0.25600
C636        C  0.54785413  0.54587139  0.40961086     0.06500
C637        C  0.53098968  0.54237595  0.42798150    -0.30500
O638        O  0.47031148  0.47698296  0.43235262    -0.22300
C639        C  0.46777239  0.46071527  0.41663105    -0.02300
C640        C  0.48434090  0.46441076  0.39688252    -0.16800
H641        H  0.52410159  0.49055967  0.37266529     0.21200
H642        H  0.49101313  0.51637491  0.45124090     0.19600
H643        H  0.52927188  0.55249967  0.44481003     0.19500
H644        H  0.48683598  0.45406270  0.38249084     0.15400
C645        C  0.56290551  0.62748794  0.32750692     0.30800
C646        C  0.57609808  0.62090008  0.33358218    -0.35500
C647        C  0.57063273  0.60634620  0.36022387     0.16800
C648        C  0.55342267  0.59873949  0.37968995     0.22600
C649        C  0.54041507  0.60564695  0.37422157    -0.33600
C650        C  0.54585603  0.62020575  0.34750328     0.16700
O651        O  0.56417661  0.63968156  0.30171358    -0.25600
C652        C  0.54781398  0.64036710  0.30548095     0.06500
C653        C  0.53593608  0.62863585  0.33364310    -0.30500
O654        O  0.55046979  0.58400282  0.40095431    -0.22300
C655        C  0.56595940  0.58198194  0.39496843    -0.02300
C656        C  0.57915504  0.59592346  0.37028053    -0.16800
H657        H  0.58929705  0.62613356  0.31755400     0.21200
H658        H  0.52661630  0.59951510  0.38868366     0.19600
H659        H  0.52153432  0.62585303  0.34137437     0.29100
H660        H  0.59277010  0.59773684  0.35997625     0.15400
C661        C  0.60835277  0.56192764  0.37782322     0.30800
C662        C  0.62621449  0.56203138  0.37931977    -0.35500
C663        C  0.63259303  0.55838423  0.34661529     0.16800
C664        C  0.62213220  0.55496248  0.31465091     0.22600
C665        C  0.60433333  0.55487826  0.31315571    -0.33600
C666        C  0.59791066  0.55833994  0.34583440     0.16700
O667        O  0.59948204  0.56472564  0.40515996    -0.25600
C668        C  0.58304251  0.56281558  0.39052600     0.06500
C669        C  0.58133001  0.55866653  0.35364015    -0.30500
O670        O  0.63002496  0.55062516  0.28783264    -0.22300
C671        C  0.64580598  0.55128549  0.30262775    -0.02300
C672        C  0.64820646  0.55612816  0.33915466    -0.16800
H673        H  0.63437159  0.56441317  0.40436341     0.21200
H674        H  0.59580807  0.55182469  0.28835380     0.19600
H675        H  0.56957563  0.55646118  0.33524519     0.19500
H676        H  0.65913645  0.55671586  0.35788382     0.15400
C677        C  0.84435110  0.40192940  0.25961731     0.30800
C678        C  0.83740870  0.41292599  0.27683815    -0.35500
C679        C  0.84281135  0.43122346  0.26101241     0.16800
C680        C  0.85410278  0.43807578  0.23021993     0.22600
C681        C  0.86103715  0.42713590  0.21309653    -0.33600
C682        C  0.85580171  0.40899845  0.22904865     0.16700
O683        O  0.84171695  0.38477085  0.27032660    -0.25600
C684        C  0.85172583  0.38095123  0.24636079     0.06500
C685        C  0.86076212  0.39551094  0.22012079    -0.30500
O686        O  0.85792021  0.45573531  0.22051274    -0.22300
C687        C  0.84904249  0.46039033  0.24538947    -0.02300
C688        C  0.83939430  0.44571345  0.27136285    -0.16800
H689        H  0.82873093  0.40775556  0.30120350     0.21200
H690        H  0.87021236  0.43257623  0.18934222     0.19600
H691        H  0.86994643  0.39619780  0.19803754     0.19500
H692        H  0.83145085  0.44590549  0.29479253     0.15400
C693        C  0.92954440  0.37616492  0.36404177     0.30800
C694        C  0.93725834  0.39018248  0.39185646    -0.35500
C695        C  0.95787251  0.40053366  0.39642999     0.16800
C696        C  0.97010407  0.39725821  0.37526237     0.22600
C697        C  0.96235903  0.38297641  0.34768198    -0.33600
C698        C  0.94167492  0.37268542  0.34286368     0.16700
O699        O  0.91096730  0.36640860  0.35292098    -0.25600
C700        C  0.91103939  0.35647597  0.32423180     0.06500
C701        C  0.92973117  0.35966837  0.31674060    -0.30500
O702        O  0.98902974  0.40972492  0.38247337    -0.22300
C703        C  0.98903947  0.42133119  0.40848949    -0.02300
C704        C  0.96988479  0.41594974  0.41848741    -0.16800
H705        H  0.92788587  0.39344307  0.40776265     0.21200
H706        H  0.97187770  0.38070464  0.33013421     0.19600
H707        H  0.93408849  0.35429894  0.29400996     0.19500
H708        H  0.96545574  0.42310187  0.43776477     0.15400
C709        C  0.60918955  0.16506103  0.25902196     0.30800
C710        C  0.59757495  0.17053946  0.27825514    -0.35500
C711        C  0.58058090  0.16780978  0.26020886     0.16800
C712        C  0.57545305  0.16028370  0.22562458     0.22600
C713        C  0.58730520  0.15532893  0.20612278    -0.33600
C714        C  0.60415052  0.15792834  0.22418835     0.16700
O715        O  0.62456201  0.16442668  0.27171817    -0.25600
C716        C  0.62930578  0.15681280  0.24452751     0.06500
C717        C  0.61722817  0.15266222  0.21428368    -0.30500
O718        O  0.55790575  0.15682128  0.21542799    -0.22300
C719        C  0.55174280  0.16234115  0.24366994    -0.02300
C720        C  0.56529501  0.16950364  0.27221132    -0.16800
H721        H  0.60096944  0.17558645  0.30593283     0.21200
H722        H  0.58310452  0.14886931  0.17944134     0.19600
H723        H  0.61744865  0.14580187  0.18926759     0.19500
H724        H  0.56349922  0.17393899  0.29875431     0.15400
C725        C  0.61793866  0.05804508  0.31926218     0.30800
C726        C  0.59915625  0.04083182  0.31844073    -0.35500
C727        C  0.59239338  0.03084742  0.35130104     0.16800
C728        C  0.60333651  0.03709877  0.38291369     0.22600
C729        C  0.62222279  0.05440502  0.38374107    -0.33600
C730        C  0.62899211  0.06455890  0.35077936     0.16700
O731        O  0.62632288  0.07042777  0.29223200    -0.25600
C732        C  0.64298802  0.08516382  0.30643028     0.06500
C733        C  0.64555970  0.08227696  0.34273953    -0.30500
O734        O  0.59397420  0.02524269  0.41043573    -0.22300
C735        C  0.57678732  0.01122105  0.39614631    -0.02300
C736        C  0.57505889  0.01422260  0.35947203    -0.16800
H737        H  0.59021281  0.03582220  0.29400872     0.21200
H738        H  0.63085811  0.05976265  0.40841464     0.19600
H739        H  0.65720095  0.09234743  0.36102191     0.19500
H740        H  0.56277892  0.00512151  0.34137149     0.15400
C741        C  0.78293768  0.25038710  0.29826907     0.30800
C742        C  0.76257008  0.24023432  0.30493987    -0.35500
C743        C  0.75227333  0.21983653  0.29885983     0.16800
C744        C  0.76131308  0.20997884  0.28690393     0.22600
C745        C  0.78184279  0.22009521  0.28104039    -0.33600
C746        C  0.79219033  0.24058149  0.28715662     0.16700
O747        O  0.79485551  0.26972565  0.29818450    -0.25600
C748        C  0.81204543  0.27242305  0.28718183     0.06500
C749        C  0.81134846  0.25481851  0.28022882    -0.30500
O750        O  0.74838011  0.19133057  0.27876681    -0.22300
C751        C  0.73093375  0.18929229  0.28600799    -0.02300
C752        C  0.73251194  0.20649187  0.29884536    -0.16800
H753        H  0.75506337  0.24788763  0.31242495     0.21200
H754        H  0.78905549  0.21271033  0.27051424     0.19600
H755        H  0.82282947  0.25289064  0.26902155     0.19500
H756        H  0.72068295  0.20917663  0.30455784     0.15400
C757        C  0.99424201  0.55530410  0.51301057     0.30800
C758        C  0.98454139  0.54546689  0.54478389    -0.35500
C759        C  0.99366499  0.55511160  0.57724436     0.16800
C760        C  0.01106339  0.57326437  0.57846247     0.22600
C761        C  0.02043300  0.58337709  0.54662078    -0.33600
C762        C  0.01140006  0.57363571  0.51412034     0.16700
O763        O  0.98969570  0.54785961  0.48013952    -0.25600
C764        C  0.00410980  0.56155263  0.45961128     0.06500
C765        C  0.01788782  0.57809723  0.47948305    -0.30500
O766        O  0.01834434  0.57835957  0.61155809    -0.22300
C767        C  0.00543257  0.56327125  0.63192284    -0.02300
C768        C  0.98961656  0.54853832  0.61188501    -0.16800
H769        H  0.97151267  0.53077568  0.54428775     0.21200
H770        H  0.03444610  0.59724740  0.54716812     0.19600
H771        H  0.03146012  0.59093385  0.47032528     0.19500
H772        H  0.97777650  0.53433289  0.62129147     0.15400
C773        C  0.69630160  0.53815502  0.01348307     0.30800
C774        C  0.70074810  0.53139267  0.04513557    -0.35500
C775        C  0.69473001  0.53567410  0.07740274     0.16800
C776        C  0.68526289  0.54620764  0.07870874     0.22600
C777        C  0.68106737  0.55326465  0.04694871    -0.33600
C778        C  0.68686729  0.54873348  0.01447181     0.16700
O779        O  0.69875339  0.53394537  0.98037740    -0.25600
C780        C  0.69085883  0.54193239  0.95967875     0.06500
C781        C  0.68335967  0.55149381  0.97935501    -0.30500
O782        O  0.67990209  0.54739914  0.11180707    -0.22300
C783        C  0.68594914  0.53738981  0.13171433    -0.02300
C784        C  0.69526719  0.52981210  0.11171321    -0.16800
H785        H  0.70758846  0.52257000  0.04451307     0.21200
H786        H  0.67308446  0.56099305  0.04740839     0.19600
H787        H  0.67538054  0.55832960  0.96934543     0.19500
H788        H  0.70105603  0.52076911  0.12100754     0.15400
C789        C  0.85283938  0.53281538  0.01322516     0.30800
C790        C  0.84064595  0.52471585  0.04330188    -0.35500
C791        C  0.84992493  0.53143050  0.07692855     0.16800
C792        C  0.86984534  0.54534298  0.08090609     0.22600
C793        C  0.88200351  0.55386908  0.05060364    -0.33600
C794        C  0.87271773  0.54697756  0.01675936     0.16700
O795        O  0.84757640  0.52689042  0.97972784    -0.25600
C796        C  0.86418268  0.53743522  0.96124894     0.06500
C797        C  0.88035510  0.55035427  0.98274646    -0.30500
O798        O  0.87575988  0.54771810  0.11501908    -0.22300
C799        C  0.85937664  0.53513961  0.13284582    -0.02300
C800        C  0.84286331  0.52478106  0.11051937    -0.16800
H801        H  0.82525090  0.51313307  0.04071191     0.21200
H802        H  0.89776574  0.56426942  0.05326323     0.19600
H803        H  0.89565149  0.55980590  0.97484023     0.19500
H804        H  0.82811468  0.51309373  0.11777402     0.15400
C805        C  0.94603399  0.55098617  0.77316902     0.30800
C806        C  0.96406315  0.55151083  0.77362641    -0.35500
C807        C  0.97348189  0.55480046  0.74030478     0.16800
C808        C  0.96580700  0.55753434  0.70867196     0.22600
C809        C  0.94778760  0.55709841  0.70822194    -0.33600
C810        C  0.93826671  0.55366848  0.74155923     0.16700
O811        O  0.93420581  0.54691557  0.80085989    -0.25600
C812        C  0.91862194  0.54696112  0.78690885     0.06500
C813        C  0.92033073  0.55112357  0.75011561    -0.30500
O814        O  0.97694387  0.55999927  0.68052087    -0.22300
C815        C  0.99197257  0.55875633  0.69420884    -0.02300
C816        C  0.99051455  0.55556463  0.73141502    -0.16800
H817        H  0.97010680  0.54906338  0.79816275     0.21200
H818        H  0.94142676  0.55889049  0.68346956     0.19600
H819        H  0.90953985  0.55132186  0.73206056     0.19500
H820        H  0.00062369  0.55403063  0.74921717     0.15400
C821        C  0.79868441  0.54404924  0.81465905     0.30800
C822        C  0.79025994  0.55555479  0.82162899    -0.35500
C823        C  0.76977852  0.54640992  0.81504234     0.16800
C824        C  0.75842010  0.52728951  0.80236996     0.22600
C825        C  0.76688906  0.51594643  0.79478919    -0.33600
C826        C  0.78729261  0.52504179  0.80148793     0.16700
O827        O  0.81702849  0.54881481  0.82241904    -0.25600
C828        C  0.81734705  0.53266782  0.81390086     0.06500
C829        C  0.79929557  0.51748240  0.80057194    -0.30500
O830        O  0.73933564  0.52094780  0.80156835    -0.22300
C831        C  0.73838232  0.53621272  0.81362833    -0.02300
C832        C  0.75688343  0.55252538  0.82224478    -0.16800
H833        H  0.79886441  0.57022939  0.83305934     0.21200
H834        H  0.75800565  0.50073584  0.78599181     0.19600
H835        H  0.79525778  0.50258823  0.79356301     0.19500
H836        H  0.76018866  0.56633650  0.83429966     0.15400
C837        C  0.45664136  0.43439168  0.58371883     0.30800
C838        C  0.46715457  0.43658207  0.55199811    -0.35500
C839        C  0.45746180  0.43572468  0.51939265     0.16800
C840        C  0.43868594  0.43286807  0.51790492     0.22600
C841        C  0.42809536  0.43048261  0.54968268    -0.33600
C842        C  0.43782566  0.43140455  0.58236695     0.16700
O843        O  0.46354920  0.43636531  0.61704356    -0.25600
C844        C  0.44907866  0.43480083  0.63772540     0.06500
C845        C  0.43253873  0.43135316  0.61730539    -0.30500
O846        O  0.43292909  0.43368556  0.48454630    -0.22300
C847        C  0.44821289  0.43704749  0.46423204    -0.02300
C848        C  0.46384824  0.43838865  0.48473200    -0.16800
H849        H  0.48213657  0.43944784  0.55272611     0.21200
H850        H  0.41353980  0.42870545  0.54902999     0.19600
H851        H  0.41899082  0.43012387  0.62649858     0.19500
H852        H  0.47813009  0.44153489  0.47533003     0.15400
C853        C  0.47703536  0.14008160  0.01331267     0.30800
C854        C  0.46881646  0.12837567  0.04430780    -0.35500
C855        C  0.47447344  0.13844184  0.07750206     0.16800
C856        C  0.48722242  0.15863379  0.07995269     0.22600
C857        C  0.49517079  0.17034783  0.04903396    -0.33600
C858        C  0.48965770  0.16028297  0.01599852     0.16700
O859        O  0.47509369  0.13366950  0.97976066    -0.25600
C860        C  0.48667684  0.15002421  0.96090624     0.06500
C861        C  0.49599344  0.16697990  0.98205989    -0.30500
O862        O  0.49172928  0.16481031  0.11360794    -0.22300
C863        C  0.48169657  0.14840311  0.13313485    -0.02300
C864        C  0.47060954  0.13153659  0.11213121    -0.16800
H865        H  0.45932798  0.11248304  0.04276113     0.21200
H866        H  0.50556660  0.18609223  0.05070316     0.19600
H867        H  0.50656236  0.18196003  0.97378853     0.19500
H868        H  0.46179311  0.11635038  0.12104303     0.15400
C869        C  0.57720168  0.40849925  0.84325501     0.30800
C870        C  0.59595082  0.41945528  0.82737159    -0.35500
C871        C  0.60825481  0.43874680  0.84047789     0.16800
C872        C  0.60243823  0.44665726  0.86725980     0.22600
C873        C  0.58378668  0.43571862  0.88315239    -0.33600
C874        C  0.57155607  0.41649487  0.87015389     0.16700
O875        O  0.56309823  0.39033939  0.83475943    -0.25600
C876        C  0.54835710  0.38676573  0.85663781     0.06500
C877        C  0.55279248  0.40248502  0.87921653    -0.30500
O878        O  0.61592799  0.46512592  0.87466674    -0.22300
C879        C  0.63064686  0.46914774  0.85250101    -0.02300
C880        C  0.62677119  0.45330525  0.83058119    -0.16800
H881        H  0.60053189  0.41344605  0.80603299     0.21200
H882        H  0.57904286  0.44187174  0.90395618     0.19600
H883        H  0.54340428  0.40352573  0.89902618     0.19500
H884        H  0.63601559  0.45279053  0.80980679     0.15400
C885        C  0.48185305  0.31688091  0.02267273     0.30800
C886        C  0.49113238  0.31669671  0.05488180    -0.35500
C887        C  0.48171244  0.31655224  0.08660177     0.16800
C888        C  0.46420261  0.31648462  0.08708385     0.22600
C889        C  0.45461315  0.31627610  0.05453608    -0.33600
C890        C  0.46417709  0.31652238  0.02244733     0.16700
O891        O  0.48917622  0.31871638  0.99024283    -0.25600
C892        C  0.47604823  0.31938728  0.96849008     0.06500
C893        C  0.46004994  0.31796851  0.98691079    -0.30500
O894        O  0.45906486  0.31800216  0.12031945    -0.22300
C895        C  0.47358002  0.31904261  0.14092699    -0.02300
C896        C  0.48788699  0.31807723  0.12127577    -0.16800
H897        H  0.50523791  0.31746810  0.05519916     0.21200
H898        H  0.44111090  0.31669551  0.05422822     0.19600
H899        H  0.44779379  0.31891979  0.97592278     0.19500
H900        H  0.50144198  0.31926043  0.13108314     0.15400
C901        C  0.45489206  0.39832546  0.71145152     0.30800
C902        C  0.45540118  0.38079641  0.71003623    -0.35500
C903        C  0.45828260  0.37378077  0.74325325     0.16800
C904        C  0.46025749  0.38329245  0.77549492     0.22600
C905        C  0.45976717  0.40068986  0.77687661    -0.33600
C906        C  0.45717632  0.40776706  0.74384860     0.16700
O907        O  0.45289928  0.40791900  0.68382526    -0.25600
C908        C  0.45408190  0.42380220  0.69884637     0.06500
C909        C  0.45685158  0.42435355  0.73617804    -0.30500
O910        O  0.46393232  0.37504135  0.80302455    -0.22300
C911        C  0.46444839  0.36000517  0.78858324    -0.02300
C912        C  0.46099183  0.35841953  0.75138543    -0.16800
H913        H  0.45412250  0.37341982  0.68475867     0.21200
H914        H  0.46181854  0.40849775  0.80197472     0.19600
H915        H  0.45847297  0.43553984  0.75493282     0.19500
H916        H  0.46144023  0.34814118  0.73289339     0.15400
C917        C  0.48129292  0.25038537  0.81890850     0.30800
C918        C  0.47063537  0.22968409  0.82157452    -0.35500
C919        C  0.48157960  0.22045905  0.81695285     0.16800
C920        C  0.50165319  0.23086272  0.81016277     0.22600
C921        C  0.51227849  0.25155903  0.80707896    -0.33600
C922        C  0.50132737  0.26078575  0.81174076     0.16700
O923        O  0.47433167  0.26206721  0.82508555    -0.25600
C924        C  0.49008760  0.28020265  0.82168164     0.06500
C925        C  0.50727407  0.28029621  0.81324689    -0.30500
O926        O  0.50921126  0.21939143  0.80977571    -0.22300
C927        C  0.49375095  0.20138137  0.81616096    -0.02300
C928        C  0.47617193  0.20116417  0.82071427    -0.16800
H929        H  0.45505479  0.22140503  0.82814244     0.21200
H930        H  0.52810569  0.25993140  0.80272991     0.19600
H931        H  0.52216095  0.29290671  0.81051646     0.19500
H932        H  0.46177337  0.18877841  0.82790682     0.15400
C933        C  0.14733466  0.45554378  0.01342815     0.30800
C934        C  0.13566331  0.44620938  0.04396809    -0.35500
C935        C  0.14468986  0.45410136  0.07763492     0.16800
C936        C  0.16380247  0.47008249  0.08078457     0.22600
C937        C  0.17546751  0.47922146  0.05048924    -0.33600
C938        C  0.16652631  0.47130729  0.01708124     0.16700
O939        O  0.14165035  0.45157917  0.97921640    -0.25600
C940        C  0.15752416  0.46494028  0.96103210     0.06500
C941        C  0.17340742  0.47746333  0.98326538    -0.30500
O942        O  0.16902606  0.47581800  0.11437003    -0.22300
C943        C  0.15317715  0.46331515  0.13329637    -0.02300
C944        C  0.13751819  0.44939340  0.11197040    -0.16800
H945        H  0.12050319  0.43403258  0.04163128     0.21200
H946        H  0.19032217  0.49194131  0.05278091     0.19600
H947        H  0.18764467  0.48993295  0.97560996     0.19500
H948        H  0.12285000  0.43803288  0.12038888     0.15400
C949        C  0.33550165  0.45588834  0.01285368     0.30800
C950        C  0.34013110  0.44896620  0.04436747    -0.35500
C951        C  0.33392996  0.45282653  0.07713545     0.16800
C952        C  0.32391829  0.46282516  0.07856633     0.22600
C953        C  0.31909274  0.46946917  0.04721369    -0.33600
C954        C  0.32524782  0.46562398  0.01468448     0.16700
O955        O  0.34081430  0.45504163  0.97949333    -0.25600
C956        C  0.33375367  0.46430060  0.95994830     0.06500
C957        C  0.32389403  0.47108616  0.98047038    -0.30500
O958        O  0.32083750  0.46624415  0.11181385    -0.22300
C959        C  0.32878556  0.45822915  0.13228367    -0.02300
C960        C  0.33709464  0.44954236  0.11222198    -0.16800
H961        H  0.34849996  0.44163717  0.04349816     0.21200
H962        H  0.31159599  0.47766998  0.04821644     0.19600
H963        H  0.31729281  0.47947333  0.97157951     0.19500
H964        H  0.34524059  0.44284196  0.12203020     0.15400
C965        C  0.39367266  0.45773909  0.73982868     0.30800
C966        C  0.40716603  0.46377585  0.71134020    -0.35500
C967        C  0.41695832  0.45335790  0.70743375     0.16800
C968        C  0.41368784  0.43803734  0.72990772     0.22600
C969        C  0.40011208  0.43191930  0.75835021    -0.33600
C970        C  0.39028509  0.44233468  0.76230455     0.16700
O971        O  0.38378468  0.46616792  0.74954157    -0.25600
C972        C  0.37379307  0.45599110  0.77849570     0.06500
C973        C  0.37720546  0.44091949  0.78767665    -0.30500
O974        O  0.42504448  0.43090757  0.72219584    -0.22300
C975        C  0.43594085  0.44183008  0.69442212    -0.02300
C976        C  0.43129072  0.45597423  0.68404653    -0.16800
H977        H  0.41016933  0.47605562  0.69396851     0.21200
H978        H  0.39769733  0.42013606  0.77658883     0.19600
H979        H  0.37160710  0.43101745  0.81062037     0.19500
H980        H  0.43777953  0.46687232  0.66277351     0.15400
C981        C  0.26632793  0.47593845  0.79733824     0.30800
C982        C  0.25752905  0.48708458  0.78992268    -0.35500
C983        C  0.23725423  0.47784361  0.79718785     0.16800
C984        C  0.22628326  0.45883651  0.81052561     0.22600
C985        C  0.23505227  0.44756538  0.81749187    -0.33600
C986        C  0.25541367  0.45687290  0.81044376     0.16700
O987        O  0.28544720  0.48256743  0.79651664    -0.25600
C988        C  0.28688606  0.46756348  0.80898553     0.06500
C989        C  0.26865106  0.45109166  0.81786266    -0.30500
O990        O  0.20799213  0.45382170  0.81847299    -0.22300
C991        C  0.20728412  0.46983242  0.81013281    -0.02300
C992        C  0.22504981  0.48520330  0.79667623    -0.16800
H993        H  0.26612675  0.50228738  0.78095634     0.21200
H994        H  0.22680609  0.43295169  0.82928037     0.19600
H995        H  0.26578505  0.43753369  0.83066541     0.19500
H996        H  0.22876508  0.50003026  0.78963634     0.15400
C997        C  0.44215808  0.99162394  0.57644013     0.30800
C998        C  0.44090147  0.98059017  0.54594136    -0.35500
C999        C  0.43923016  0.98804580  0.51247968     0.16800
C1000       C  0.43882392  0.00518839  0.50917952     0.22600
C1001       C  0.43976578  0.01606841  0.53980732    -0.33600
C1002       C  0.44149250  0.00862709  0.57334312     0.16700
O1003       O  0.44506605  0.98798345  0.60998160    -0.25600
C1004       C  0.44626042  0.00279689  0.62905796     0.06500
C1005       C  0.44403351  0.01608649  0.60745863    -0.30500
O1006       O  0.43903379  0.01040402  0.47514705    -0.22300
C1007       C  0.43952710  0.99638916  0.45621042    -0.02300
C1008       C  0.43943778  0.98197318  0.47827838    -0.16800
H1009       H  0.44188544  0.96749331  0.54806991     0.21200
H1010       H  0.43991967  0.02977175  0.53755069     0.19600
H1011       H  0.44478032  0.02957220  0.61544851     0.19500
H1012       H  0.44073253  0.96958814  0.47019198     0.15400
C1013       C  0.46851021  0.05393588  0.69958019     0.30800
C1014       C  0.48277677  0.07403119  0.70478237    -0.35500
C1015       C  0.47799345  0.08415894  0.72974286     0.16800
C1016       C  0.46041965  0.07515488  0.74845747     0.22600
C1017       C  0.44605033  0.05512978  0.74286602    -0.33600
C1018       C  0.45085410  0.04502206  0.71790290     0.16700
O1019       O  0.47046718  0.04136146  0.67942430    -0.25600
C1020       C  0.45388284  0.02397398  0.68495961     0.06500
C1021       C  0.44104093  0.02559787  0.70843382    -0.30500
O1022       O  0.45972692  0.08697749  0.77264029    -0.22300
C1023       C  0.47701499  0.10386098  0.76911134    -0.02300
C1024       C  0.48890980  0.10296260  0.74268850    -0.16800
H1025       H  0.49689252  0.08110636  0.69124565     0.21200
H1026       H  0.43240347  0.04775976  0.75788958     0.19600
H1027       H  0.42679602  0.01405528  0.71824478     0.19500
H1028       H  0.50390022  0.11417851  0.73558517     0.15400
C1029       C  0.32968350  0.86187336  0.99908211     0.30800
C1030       C  0.33209521  0.87300128  0.03016612    -0.35500
C1031       C  0.32866152  0.86297545  0.06320960     0.16800
C1032       C  0.32326278  0.84338135  0.06541877     0.22600
C1033       C  0.32072482  0.83226200  0.03445544    -0.33600
C1034       C  0.32415971  0.84225430  0.00156594     0.16700
O1035       O  0.33320691  0.86845413  0.96550043    -0.25600
C1036       C  0.32989563  0.85280119  0.94647530     0.06500
C1037       C  0.32417728  0.83612833  0.96750474    -0.30500
O1038       O  0.32194464  0.83724091  0.09893310    -0.22300
C1039       C  0.32637790  0.85301550  0.11858254    -0.02300
C1040       C  0.33067596  0.86948523  0.09787120    -0.16800
H1041       H  0.33682541  0.88850645  0.02875166     0.21200
H1042       H  0.31688354  0.81699079  0.03596383     0.19600
H1043       H  0.32118099  0.82175109  0.95900086     0.19500
H1044       H  0.33543946  0.88426864  0.10701913     0.15400
C1045       C  0.41813846  0.96859588  0.73316338     0.30800
C1046       C  0.41257362  0.95977998  0.76733901    -0.35500
C1047       C  0.39523131  0.94105901  0.76847376     0.16800
C1048       C  0.38400884  0.93166506  0.73811237     0.22600
C1049       C  0.38932201  0.94073685  0.70404292    -0.33600
C1050       C  0.40677630  0.95941977  0.70290252     0.16700
O1051       O  0.43461093  0.98529892  0.72555422    -0.25600
C1052       C  0.43394446  0.98703252  0.68979913     0.06500
C1053       C  0.41669470  0.97131774  0.67443458    -0.30500
O1054       O  0.36958546  0.91337402  0.74482221    -0.22300
C1055       C  0.37158030  0.91109113  0.77995447    -0.02300
C1056       C  0.38718339  0.92788792  0.79606711    -0.16800
H1057       H  0.42164166  0.96663849  0.79115221     0.21200
H1058       H  0.38096235  0.93334870  0.67986155     0.19600
H1059       H  0.41221723  0.96866088  0.64633872     0.19500
H1060       H  0.39264876  0.92963783  0.82356741     0.15400
C1061       C  0.15762043  0.58631143  0.86724713     0.30800
C1062       C  0.14797960  0.56658601  0.87847078    -0.35500
C1063       C  0.15671766  0.55592971  0.86801280     0.16800
C1064       C  0.17375699  0.56401788  0.84777297     0.22600
C1065       C  0.18343130  0.58382004  0.83647235    -0.33600
C1066       C  0.17470172  0.59454352  0.84708345     0.16700
O1067       O  0.15166548  0.59876218  0.87325811    -0.25600
C1068       C  0.16512781  0.61522680  0.85688463     0.06500
C1069       C  0.17984187  0.61352996  0.84013614    -0.30500
O1070       O  0.17896747  0.55105438  0.84039250    -0.22300
C1071       C  0.16506517  0.53455897  0.85625332    -0.02300
C1072       C  0.15088814  0.53674492  0.87378528    -0.16800
H1073       H  0.13448094  0.55994757  0.89395765     0.21200
H1074       H  0.19667766  0.59033523  0.82029045     0.19600
H1075       H  0.19216159  0.62449838  0.82437592     0.19500
H1076       H  0.13793163  0.52566458  0.88807020     0.15400
C1077       C  0.16371038  0.68306536  0.01337829     0.30800
C1078       C  0.17503370  0.68789705  0.04519083    -0.35500
C1079       C  0.16444432  0.68284571  0.07743042     0.16800
C1080       C  0.14406415  0.67371057  0.07851676     0.22600
C1081       C  0.13271513  0.66910149  0.04657570    -0.33600
C1082       C  0.14333520  0.67408502  0.01418250     0.16700
O1083       O  0.17048731  0.68490110  0.98042055    -0.25600
C1084       C  0.15429975  0.67704647  0.95968608     0.06500
C1085       C  0.13695211  0.67017824  0.97914456    -0.30500
O1086       O  0.13720706  0.66904003  0.11173550    -0.22300
C1087       C  0.15346226  0.67534927  0.13198675    -0.02300
C1088       C  0.17078394  0.68411443  0.11206416    -0.16800
H1089       H  0.19097314  0.69443360  0.04481166     0.21200
H1090       H  0.11668592  0.66146059  0.04692289     0.19600
H1091       H  0.12182648  0.66242340  0.96911624     0.19500
H1092       H  0.18582121  0.68978667  0.12163200     0.15400
C1093       C  0.08072900  0.62633515  0.74599589     0.30800
C1094       C  0.06076062  0.62020562  0.73993072    -0.35500
C1095       C  0.05036609  0.60467498  0.71527324     0.16800
C1096       C  0.05904339  0.59591540  0.69745108     0.22600
C1097       C  0.07913722  0.60234179  0.70283661    -0.33600
C1098       C  0.08949080  0.61773723  0.72776219     0.16700
O1099       O  0.09255691  0.63903573  0.77079721    -0.25600
C1100       C  0.10915287  0.63867169  0.76820995     0.06500
C1101       C  0.10813064  0.62578404  0.74174483    -0.30500
O1102       O  0.04610635  0.58033671  0.67858940    -0.22300
C1103       C  0.02873106  0.57881568  0.68452342    -0.02300
C1104       C  0.03070837  0.59394129  0.70677209    -0.16800
H1105       H  0.05353018  0.62635824  0.75492709     0.21200
H1106       H  0.08594876  0.59511004  0.68997180     0.19600
H1107       H  0.11909768  0.62197658  0.73537566     0.19500
H1108       H  0.01919318  0.59610992  0.71698272     0.15400
C1109       C  0.25616420  0.78318926  0.79491256     0.30800
C1110       C  0.23563572  0.77344276  0.80047178    -0.35500
C1111       C  0.22535448  0.75272047  0.79913581     0.16800
C1112       C  0.23466657  0.74233636  0.79277355     0.22600
C1113       C  0.25504535  0.75206476  0.78628450    -0.33600
C1114       C  0.26528718  0.77273045  0.78754656     0.16700
O1115       O  0.26902391  0.80222577  0.79970000    -0.25600
C1116       C  0.28652905  0.80394087  0.79483026     0.06500
C1117       C  0.28505899  0.78610468  0.78684355    -0.30500
O1118       O  0.22276435  0.72314498  0.79690404    -0.22300
C1119       C  0.20554887  0.72114497  0.80571306    -0.02300
C1120       C  0.20619520  0.73901618  0.80722087    -0.16800
H1121       H  0.22838051  0.78140035  0.80745309     0.21200
H1122       H  0.26259632  0.74404027  0.78253962     0.19600
H1123       H  0.29694463  0.78315903  0.78426240     0.19500
H1124       H  0.19465272  0.74160855  0.81561745     0.15400
C1125       C  0.53258419  0.51417407  0.68424533     0.30800
C1126       C  0.52315733  0.49474266  0.69754602    -0.35500
C1127       C  0.50285105  0.48277336  0.68950372     0.16800
C1128       C  0.49259146  0.48946845  0.66974582     0.22600
C1129       C  0.50199157  0.50886092  0.65647685    -0.33600
C1130       C  0.52224686  0.52081531  0.66451473     0.16700
O1131       O  0.55155030  0.52774126  0.68772790    -0.25600
C1132       C  0.55346770  0.54331306  0.66984769     0.06500
C1133       C  0.53558892  0.53979170  0.65507214    -0.30500
O1134       O  0.47393211  0.47564147  0.66419777    -0.22300
C1135       C  0.47191871  0.45970456  0.68074482    -0.02300
C1136       C  0.48965744  0.46339348  0.69689204    -0.16800
H1137       H  0.53116427  0.48925512  0.71267261     0.21200
H1138       H  0.49409884  0.51417491  0.64049564     0.19600
H1139       H  0.53299337  0.54972509  0.63898690     0.19500
H1140       H  0.49275304  0.45321565  0.71082999     0.15400
C1141       C  0.57825443  0.57680891  0.57155927     0.30800
C1142       C  0.57757363  0.58709920  0.54090706    -0.35500
C1143       C  0.57724759  0.57881271  0.50715943     0.16800
C1144       C  0.57762977  0.56167198  0.50396740     0.22600
C1145       C  0.57846306  0.55155601  0.53438004    -0.33600
C1146       C  0.57867620  0.55974309  0.56783569     0.16700
O1147       O  0.57705132  0.58082121  0.60578111    -0.25600
C1148       C  0.57664272  0.56604092  0.62422581     0.06500
C1149       C  0.57755074  0.55254895  0.60149784    -0.30500
O1150       O  0.57544920  0.55548431  0.47041618    -0.22300
C1151       C  0.57364850  0.56877271  0.45128453    -0.02300
C1152       C  0.57485510  0.58380598  0.47288331    -0.16800
H1153       H  0.57654900  0.60015813  0.54320212     0.21200
H1154       H  0.57808970  0.53773246  0.53213795     0.19600
H1155       H  0.57608073  0.53857032  0.60816938     0.19500
H1156       H  0.57292420  0.59588376  0.46493555     0.15400
C1157       C  0.61453246  0.56772413  0.71568199     0.30800
C1158       C  0.62975822  0.57573761  0.74198972    -0.35500
C1159       C  0.63892278  0.56483903  0.74939482     0.16800
C1160       C  0.63347071  0.54737907  0.73187917     0.22600
C1161       C  0.61839274  0.53948604  0.70567012    -0.33600
C1162       C  0.60926938  0.55029314  0.69846699     0.16700
O1163       O  0.60310384  0.57464885  0.70594762    -0.25600
C1164       C  0.59024666  0.56141106  0.68219339     0.06500
C1165       C  0.59363328  0.54598836  0.67665813    -0.30500
O1166       O  0.64287042  0.53884440  0.74437878    -0.22300
C1167       C  0.65459460  0.55088596  0.77034753    -0.02300
C1168       C  0.65284337  0.56739233  0.77471553    -0.16800
H1169       H  0.63372838  0.58915297  0.75646594     0.21200
H1170       H  0.61365992  0.52550898  0.69257948     0.19600
H1171       H  0.58509439  0.53271961  0.66082192     0.19500
H1172       H  0.65995327  0.57894515  0.79480148     0.15400
C1173       C  0.52294643  0.99787037  0.68554480     0.30800
C1174       C  0.50341699  0.98860004  0.69829478    -0.35500
C1175       C  0.49220460  0.99684259  0.68685389     0.16800
C1176       C  0.49967686  0.01306491  0.66444770     0.22600
C1177       C  0.51914913  0.02224009  0.65149236    -0.33600
C1178       C  0.53037143  0.01402812  0.66299784     0.16700
O1179       O  0.53575941  0.99219378  0.69178156    -0.25600
C1180       C  0.55182332  0.00492640  0.67316410     0.06500
C1181       C  0.54909920  0.01878344  0.65454895    -0.30500
O1182       O  0.48649774  0.01804034  0.65646194    -0.22300
C1183       C  0.47017470  0.00483627  0.67388485    -0.02300
C1184       C  0.47299071  0.99120817  0.69322056    -0.16800
H1185       H  0.49730596  0.97569928  0.71551294     0.21200
H1186       H  0.52506506  0.03477764  0.63334894     0.19600
H1187       H  0.55896774  0.03001512  0.63574074     0.19500
H1188       H  0.46240326  0.97862997  0.70891061     0.15400
C1189       C  0.56272829  0.98842859  0.57727464     0.30800
C1190       C  0.55127585  0.97740236  0.54756270    -0.35500
C1191       C  0.55925702  0.98485747  0.51349493     0.16800
C1192       C  0.57728210  0.00199959  0.50861345     0.22600
C1193       C  0.58898060  0.01290440  0.53852881    -0.33600
C1194       C  0.58096296  0.00540027  0.57283270     0.16700
O1195       O  0.55715172  0.98504147  0.61123342    -0.25600
C1196       C  0.57199561  0.99995876  0.62938834     0.06500
C1197       C  0.58742509  0.01295900  0.60665132    -0.30500
O1198       O  0.58085416  0.00709829  0.47413670    -0.22300
C1199       C  0.56487412  0.99295546  0.45666296    -0.02300
C1200       C  0.55108234  0.97876319  0.48020880    -0.16800
H1201       H  0.53670620  0.96435081  0.55075321     0.21200
H1202       H  0.60292889  0.02669552  0.53530588     0.19600
H1203       H  0.60096345  0.02657503  0.61341167     0.19500
H1204       H  0.53636528  0.96655036  0.47415621     0.15400
C1205       C  0.41186378  0.83601550  0.84741392     0.30800
C1206       C  0.42482799  0.83316420  0.86923027    -0.35500
C1207       C  0.44115487  0.83457258  0.85175041     0.16800
C1208       C  0.44435054  0.83828464  0.81523348     0.22600
C1209       C  0.43125397  0.84088130  0.79335410    -0.33600
C1210       C  0.41506264  0.83969541  0.81089510     0.16700
O1211       O  0.39658628  0.83691891  0.85861738    -0.25600
C1212       C  0.38993250  0.84121315  0.82889844     0.06500
C1213       C  0.40078408  0.84304026  0.79834795    -0.30500
O1214       O  0.46134999  0.84060657  0.80504167    -0.22300
C1215       C  0.46918663  0.83842703  0.83538902    -0.02300
C1216       C  0.45725379  0.83454455  0.86532552    -0.16800
H1217       H  0.42279474  0.83087086  0.89806157     0.21200
H1218       H  0.43396697  0.84442462  0.76495990     0.19600
H1219       H  0.39891140  0.84704731  0.77124850     0.19500
H1220       H  0.46048223  0.83302605  0.89323137     0.15400
C1221       C  0.54319895  0.84685267  0.00568848     0.30800
C1222       C  0.53645544  0.83488396  0.03645968    -0.35500
C1223       C  0.54055443  0.84477008  0.06947119     0.16800
C1224       C  0.55086844  0.86511207  0.07229998     0.22600
C1225       C  0.55799142  0.87715632  0.04140981    -0.33600
C1226       C  0.55366595  0.86721791  0.00815857     0.16700
O1227       O  0.53885581  0.84055483  0.97216534    -0.25600
C1228       C  0.54669517  0.85701596  0.95264657     0.06500
C1229       C  0.55627694  0.87412074  0.97352051    -0.30500
O1230       O  0.55147704  0.87108635  0.10577553    -0.22300
C1231       C  0.54134780  0.85430657  0.12434071    -0.02300
C1232       C  0.53430718  0.83752976  0.10314106    -0.16800
H1233       H  0.52762938  0.81890746  0.03463626     0.21200
H1234       H  0.56547287  0.89311150  0.04304789     0.19600
H1235       H  0.56283409  0.88929777  0.96464559     0.19500
H1236       H  0.52511133  0.82219765  0.11115593     0.15400
C1237       C  0.56422354  0.95764139  0.70340695     0.30800
C1238       C  0.56392193  0.93973835  0.70216809    -0.35500
C1239       C  0.56023147  0.92942242  0.73497540     0.16800
C1240       C  0.55701993  0.93626030  0.76676668     0.22600
C1241       C  0.55736776  0.95413917  0.76802481    -0.33600
C1242       C  0.56108080  0.96441991  0.73529857     0.16700
O1243       O  0.56743612  0.96971852  0.67602278    -0.25600
C1244       C  0.56636311  0.98450955  0.69052701     0.06500
C1245       C  0.56243928  0.98186886  0.72745886    -0.30500
O1246       O  0.55301623  0.92392335  0.79390428    -0.22300
C1247       C  0.55371416  0.90895792  0.77947969    -0.02300
C1248       C  0.55819249  0.91158116  0.74287142    -0.16800
H1249       H  0.56625332  0.93416433  0.67729810     0.21200
H1250       H  0.55472942  0.95957222  0.79278112     0.19600
H1251       H  0.56103105  0.99162105  0.74587167     0.19500
H1252       H  0.55899844  0.90145937  0.72450365     0.15400
C1253       C  0.41327929  0.56724149  0.82846555     0.30800
C1254       C  0.42543527  0.58335454  0.80603188    -0.35500
C1255       C  0.44323281  0.59829395  0.82160727     0.16800
C1256       C  0.44854115  0.59746596  0.85693745     0.22600
C1257       C  0.43636218  0.58144644  0.87936482    -0.33600
C1258       C  0.41870772  0.56646088  0.86372511     0.16700
O1259       O  0.39673784  0.55099641  0.81878879    -0.25600
C1260       C  0.39158871  0.53970512  0.84820026     0.06500
C1261       C  0.40466685  0.54858026  0.87701539    -0.30500
O1262       O  0.46630927  0.61233309  0.86538571    -0.22300
C1263       C  0.47257035  0.62283411  0.83512730    -0.02300
C1264       C  0.45881895  0.61487903  0.80693886    -0.16800
H1265       H  0.42161878  0.58385970  0.77800134     0.21200
H1266       H  0.44070968  0.58040724  0.90677309     0.19600
H1267       H  0.40433890  0.54238680  0.90334880     0.19500
H1268       H  0.46043164  0.62008335  0.77935547     0.15400
C1269       C  0.55589277  0.68170244  0.99548916     0.30800
C1270       C  0.56113105  0.67539928  0.02712701    -0.35500
C1271       C  0.55407688  0.67839214  0.05974018     0.16800
C1272       C  0.54277251  0.68705660  0.06086515     0.22600
C1273       C  0.53789983  0.69363848  0.02955385    -0.33600
C1274       C  0.54482080  0.69059213  0.99721216     0.16700
O1275       O  0.55881285  0.67840910  0.96181604    -0.25600
C1276       C  0.54947446  0.68532878  0.94205256     0.06500
C1277       C  0.54070361  0.69321535  0.96272418    -0.30500
O1278       O  0.53641398  0.68714799  0.09342525    -0.22300
C1279       C  0.54378776  0.67859167  0.11385617    -0.02300
C1280       C  0.55500290  0.67284940  0.09446368    -0.16800
H1281       H  0.56930863  0.66788080  0.02623247     0.21200
H1282       H  0.52854885  0.69989126  0.03021723     0.19600
H1283       H  0.53134273  0.69869940  0.95368392     0.19500
H1284       H  0.56203653  0.66502095  0.10422548     0.15400
C1285       C  0.56345336  0.61849817  0.75857481     0.30800
C1286       C  0.56433047  0.60128589  0.76088859    -0.35500
C1287       C  0.56730327  0.59428124  0.72839441     0.16800
C1288       C  0.56954912  0.60360056  0.69569632     0.22600
C1289       C  0.56863808  0.62088556  0.69334292    -0.33600
C1290       C  0.56546276  0.62785000  0.72594337     0.16700
O1291       O  0.55944692  0.62675086  0.78531221    -0.25600
C1292       C  0.55879805  0.64162524  0.76980756     0.06500
C1293       C  0.56252535  0.64308812  0.73288200    -0.30500
O1294       O  0.57205575  0.59422286  0.66871529    -0.22300
C1295       C  0.57135428  0.57863187  0.68441817    -0.02300
C1296       C  0.56821732  0.57797244  0.72151064    -0.16800
H1297       H  0.56234997  0.59358647  0.78623820     0.21200
H1298       H  0.56992495  0.62817478  0.66781262     0.19600
H1299       H  0.56210357  0.65323644  0.71369811     0.19500
H1300       H  0.56683097  0.56692035  0.74064537     0.15400
C1301       C  0.55049557  0.78832965  0.79530857     0.30800
C1302       C  0.56220975  0.77977840  0.79909428    -0.35500
C1303       C  0.55250778  0.75928771  0.79306418     0.16800
C1304       C  0.53268949  0.74805048  0.78365563     0.22600
C1305       C  0.52112051  0.75664438  0.77913086    -0.33600
C1306       C  0.53075306  0.77702748  0.78544036     0.16700
O1307       O  0.55580915  0.80665061  0.80380955    -0.25600
C1308       C  0.53924023  0.80702130  0.79916265     0.06500
C1309       C  0.52326763  0.78904199  0.78753004    -0.30500
O1310       O  0.52602887  0.72894728  0.78346614    -0.22300
C1311       C  0.54175092  0.72781944  0.79272644    -0.02300
C1312       C  0.55870337  0.74625997  0.79877636    -0.16800
H1313       H  0.57748962  0.78827354  0.80816535     0.21200
H1314       H  0.50539934  0.74784448  0.77319662     0.19600
H1315       H  0.50800766  0.78503351  0.78367525     0.19500
H1316       H  0.57303071  0.74946683  0.80868292     0.15400
C1317       C  0.84262632  0.43361647  0.83848667     0.30800
C1318       C  0.83756303  0.41647736  0.81881102    -0.35500
C1319       C  0.84200930  0.40325704  0.83562724     0.16800
C1320       C  0.85059441  0.40663674  0.86957846     0.22600
C1321       C  0.85515772  0.42342109  0.88950637    -0.33600
C1322       C  0.85095200  0.43667164  0.87260638     0.16700
O1323       O  0.84191036  0.44901250  0.82663253    -0.25600
C1324       C  0.84983408  0.46193245  0.85364607     0.06500
C1325       C  0.85556188  0.45496973  0.88296066    -0.30500
O1326       O  0.85529713  0.39353448  0.87884344    -0.22300
C1327       C  0.84966493  0.38152496  0.85060908    -0.02300
C1328       C  0.84112218  0.38667846  0.82290889    -0.16800
H1329       H  0.83160757  0.41414977  0.79161555     0.21200
H1330       H  0.86248997  0.42646527  0.91559753     0.19600
H1331       H  0.86310479  0.46274111  0.90747424     0.19500
H1332       H  0.83606242  0.37987866  0.79664050     0.15400
C1333       C  0.85408858  0.32086417  0.01709066     0.30800
C1334       C  0.84220682  0.31628014  0.04761387    -0.35500
C1335       C  0.85179100  0.31895511  0.08095625     0.16800
C1336       C  0.87176243  0.32577258  0.08429790     0.22600
C1337       C  0.88369840  0.33029461  0.05360118    -0.33600
C1338       C  0.87404608  0.32752581  0.02005430     0.16700
O1339       O  0.84818333  0.32002523  0.98342515    -0.25600
C1340       C  0.86448451  0.32608057  0.96431741     0.06500
C1341       C  0.88108500  0.33095985  0.98561432    -0.30500
O1342       O  0.87770342  0.32805590  0.11840471    -0.22300
C1343       C  0.86125038  0.32253793  0.13690098    -0.02300
C1344       C  0.84472199  0.31668707  0.11495425    -0.16800
H1345       H  0.82661228  0.31129109  0.04551970     0.21200
H1346       H  0.89942551  0.33588925  0.05572603     0.19600
H1347       H  0.89616687  0.33669555  0.97703217     0.19500
H1348       H  0.82980073  0.31213246  0.12292658     0.15400
C1349       C  0.57633282  0.14502523  0.86642016     0.30800
C1350       C  0.58420943  0.13301811  0.87326197    -0.35500
C1351       C  0.60418820  0.14118822  0.86467703     0.16800
C1352       C  0.61570936  0.15992637  0.85043440     0.22600
C1353       C  0.60782082  0.17198070  0.84362864    -0.33600
C1354       C  0.58777057  0.16377642  0.85216713     0.16700
O1355       O  0.55775361  0.13991896  0.87081808    -0.25600
C1356       C  0.55721549  0.15556339  0.85924315     0.06500
C1357       C  0.57547342  0.17093083  0.84746181    -0.30500
O1358       O  0.63401934  0.16445912  0.84419359    -0.22300
C1359       C  0.63414358  0.14840614  0.85465344    -0.02300
C1360       C  0.61599464  0.13345160  0.86750843    -0.16800
H1361       H  0.57529086  0.11821369  0.88401405     0.21200
H1362       H  0.61661354  0.18660170  0.83206681     0.19600
H1363       H  0.57895658  0.18494646  0.83583589     0.19500
H1364       H  0.61209155  0.11898411  0.87742586     0.15400
C1365       C  0.69140134  0.13304094  0.01661667     0.30800
C1366       C  0.68627126  0.12143195  0.04804710    -0.35500
C1367       C  0.68806796  0.13125022  0.08058502     0.16800
C1368       C  0.69442271  0.15110338  0.08201786     0.22600
C1369       C  0.69981352  0.16273978  0.05076329    -0.33600
C1370       C  0.69806179  0.15295690  0.01834459     0.16700
O1371       O  0.68941627  0.12668117  0.98305595    -0.25600
C1372       C  0.69498964  0.14278781  0.96318592     0.06500
C1373       C  0.70063158  0.15954957  0.98375472    -0.30500
O1374       O  0.69391859  0.15704067  0.11486744    -0.22300
C1375       C  0.68735452  0.14085960  0.13489416    -0.02300
C1376       C  0.68348610  0.12434218  0.11508640    -0.16800
H1377       H  0.68069142  0.10572794  0.04709252     0.21200
H1378       H  0.70448829  0.17825832  0.05154886     0.19600
H1379       H  0.70493888  0.17424790  0.97444873     0.19500
H1380       H  0.67754794  0.10935070  0.12454810     0.15400
C1381       C  0.61371538  0.03727227  0.71882054     0.30800
C1382       C  0.62804115  0.04322920  0.74652368    -0.35500
C1383       C  0.64052305  0.06370850  0.75142151     0.16800
C1384       C  0.63912456  0.07729687  0.73004840     0.22600
C1385       C  0.62512180  0.07131617  0.70189364    -0.33600
C1386       C  0.61243085  0.05089006  0.69751844     0.16700
O1387       O  0.59946850  0.01900006  0.71164887    -0.25600
C1388       C  0.58867233  0.02076116  0.68545626     0.06500
C1389       C  0.59629264  0.04045773  0.67561235    -0.30500
O1390       O  0.65042824  0.09551632  0.74188581    -0.22300
C1391       C  0.65927989  0.09372224  0.77119948    -0.02300
C1392       C  0.65383893  0.07425581  0.77833494    -0.16800
H1393       H  0.62867107  0.03264255  0.76428646     0.21200
H1394       H  0.62344304  0.08188293  0.68592613     0.19600
H1395       H  0.59074975  0.04643525  0.65553364     0.19500
H1396       H  0.65772725  0.06857064  0.80160866     0.15400
C1397       C  0.77103721  0.21367242  0.80785548     0.30800
C1398       C  0.79143169  0.22462463  0.81561526    -0.35500
C1399       C  0.80092788  0.24508046  0.80993909     0.16800
C1400       C  0.79108031  0.25411393  0.79702024     0.22600
C1401       C  0.77085597  0.24311239  0.78820114    -0.33600
C1402       C  0.76132812  0.22272096  0.79430439     0.16700
O1403       O  0.75871314  0.19497557  0.81639814    -0.25600
C1404       C  0.74094364  0.19203972  0.80798388     0.06500
C1405       C  0.74171818  0.20872614  0.79380275    -0.30500
O1406       O  0.80210885  0.27353456  0.79834807    -0.22300
C1407       C  0.81923782  0.27699767  0.81221814    -0.02300
C1408       C  0.81945057  0.25987668  0.81964193    -0.16800
H1409       H  0.79905074  0.21787764  0.82775987     0.21200
H1410       H  0.76279194  0.25014322  0.77966272     0.19600
H1411       H  0.72945803  0.21072818  0.78722025     0.19500
H1412       H  0.83100579  0.25854102  0.83287553     0.15400
C1413       C  0.02050612  0.49183895  0.67120903     0.30800
C1414       C  0.02813090  0.51043374  0.65505851    -0.35500
C1415       C  0.01964412  0.52132510  0.66582046     0.16800
C1416       C  0.00468119  0.51449746  0.69076456     0.22600
C1417       C  0.99695108  0.49580373  0.70680899    -0.33600
C1418       C  0.00544752  0.48487006  0.69594722     0.16700
O1419       O  0.02559925  0.47883638  0.66363084    -0.25600
C1420       C  0.01357199  0.46306108  0.68350178     0.06500
C1421       C  0.00071200  0.46615885  0.70428649    -0.30500
O1422       O  0.99886211  0.52716653  0.69646903    -0.22300
C1423       C  0.01037606  0.54244134  0.67503893    -0.02300
C1424       C  0.02343949  0.53938468  0.65514294    -0.16800
H1425       H  0.03967674  0.51590783  0.63505331     0.21200
H1426       H  0.98497064  0.49006508  0.72596527     0.19600
H1427       H  0.98878629  0.45590202  0.72153533     0.19500
H1428       H  0.03407321  0.54906952  0.63532511     0.15400
C1429       C  0.01698057  0.43612877  0.58486820     0.30800
C1430       C  0.02657669  0.43558844  0.55358433    -0.35500
C1431       C  0.01721655  0.43481990  0.52058528     0.16800
C1432       C  0.99966796  0.43454237  0.51861297     0.22600
C1433       C  0.99001246  0.43496461  0.54980030    -0.33600
C1434       C  0.99937668  0.43581855  0.58270868     0.16700
O1435       O  0.02365237  0.43806565  0.61835684    -0.25600
C1436       C  0.01015283  0.43904107  0.63805255     0.06500
C1437       C  0.99468618  0.43766138  0.61705939    -0.30500
O1438       O  0.99422603  0.43517097  0.48517198    -0.22300
C1439       C  0.00840690  0.43589598  0.46479111    -0.02300
C1440       C  0.02312408  0.43557402  0.48587149    -0.16800
H1441       H  0.04066041  0.43634734  0.55483900     0.21200
H1442       H  0.97646841  0.43526046  0.54843904     0.19600
H1443       H  0.98227035  0.43875421  0.62584033     0.19500
H1444       H  0.03677677  0.43668090  0.47810471     0.15400
C1445       C  0.05045753  0.43895586  0.72310226     0.30800
C1446       C  0.05791886  0.43140696  0.74902636    -0.35500
C1447       C  0.07857329  0.44176443  0.75342159     0.16800
C1448       C  0.09105159  0.45832425  0.73336790     0.22600
C1449       C  0.08357049  0.46568140  0.70697827    -0.33600
C1450       C  0.06286000  0.45543711  0.70291840     0.16700
O1451       O  0.03161463  0.43245175  0.71675945    -0.25600
C1452       C  0.03168369  0.44495931  0.69234944     0.06500
C1453       C  0.05087654  0.45948375  0.68243305    -0.30500
O1454       O  0.10967509  0.46680419  0.74432287    -0.22300
C1455       C  0.10914161  0.45552373  0.77167232    -0.02300
C1456       C  0.09017828  0.43965474  0.77841834    -0.16800
H1457       H  0.04821180  0.41883851  0.76578700     0.21200
H1458       H  0.09317775  0.47901938  0.69189418     0.19600
H1459       H  0.05533799  0.47161445  0.66375906     0.19500
H1460       H  0.08545964  0.42896230  0.80013321     0.15400
C1461       C  0.96697948  0.40251627  0.71028269     0.30800
C1462       C  0.94732003  0.38654580  0.70793059    -0.35500
C1463       C  0.93771691  0.37886457  0.74094457     0.16800
C1464       C  0.94692554  0.38628467  0.77388639     0.22600
C1465       C  0.96646932  0.40220747  0.77617916    -0.33600
C1466       C  0.97592177  0.40998416  0.74331982     0.16700
O1467       O  0.97852695  0.41262208  0.68303696    -0.25600
C1468       C  0.99502859  0.42690548  0.69888502     0.06500
C1469       C  0.99405450  0.42587730  0.73645693    -0.30500
O1470       O  0.93499339  0.37770450  0.80130426    -0.22300
C1471       C  0.91785466  0.36461785  0.78588990    -0.02300
C1472       C  0.91862355  0.36462818  0.74836060    -0.16800
H1473       H  0.93986897  0.38087964  0.68222135     0.21200
H1474       H  0.97362816  0.40851031  0.80188166     0.19600
H1475       H  0.00502922  0.43585354  0.75589114     0.19500
H1476       H  0.90665542  0.35606468  0.72938343     0.15400
loop_ 
_geom_bond_atom_site_label_1 
_geom_bond_atom_site_label_2 
_geom_bond_distance 
_geom_bond_site_symmetry_2 
_ccdc_geom_bond_type 
C1         C1420   1.531       .  S
C1         C1436   1.524       .  S
C1         C1452   1.531       .  S
C1         C1468   1.528   1_455  S
O2            C5   1.269       .  A
O2           Cd7   2.514       .  S
C3           O12   1.263       .  A
C3            O8   1.268       .  A
C3         C1372   1.471       .  S
O4           C10   1.264       .  A
O4           Cd7   2.431       .  S
C5           O13   1.261       .  A
C5         C1391   1.470       .  S
C6           O11   1.264       .  A
C6            O9   1.264       .  A
C6         C1359   1.465       .  S
Cd7          O14   2.493       .  S
Cd7          O13   2.428       .  S
Cd7          O12   2.438       .  S
Cd7           O8   2.503       .  S
Cd7          O11   2.472       .  S
Cd7           O9   2.448       .  S
C10          O14   1.267       .  A
C10        C1404   1.468       .  S
O15          C18   1.268       .  A
O15         Cd20   2.486       .  S
C16          O25   1.262       .  A
C16          O21   1.263       .  A
C16        C1471   1.466       .  S
O17          C23   1.263       .  A
O17         Cd20   2.446       .  S
C18          O26   1.265       .  A
C18        C1340   1.469       .  S
C19          O24   1.264       .  A
C19          O22   1.260       .  A
C19        C1327   1.461       .  S
Cd20         O27   2.466       .  S
Cd20         O26   2.440       .  S
Cd20         O25   2.476       .  S
Cd20         O21   2.466       .  S
Cd20         O24   2.489       .  S
Cd20         O22   2.429       .  S
C23          O27   1.266       .  A
C23        C1407   1.465       .  S
O28          C31   1.263       .  A
O28         Cd33   2.479       .  S
C29          O38   1.264       .  A
C29          O34   1.267       .  A
C29        C1276   1.471       .  S
O30          C36   1.264       .  A
O30         Cd33   2.463       .  S
C31          O39   1.266       .  A
C31        C1292   1.478       .  S
C32          O37   1.265       .  A
C32          O35   1.261       .  A
C32        C1263   1.467       .  S
Cd33         O40   2.495       .  S
Cd33         O39   2.513       .  S
Cd33         O38   2.437       .  S
Cd33         O34   2.505       .  S
Cd33         O37   2.501       .  S
Cd33         O35   2.450       .  S
C36          O40   1.267       .  A
C36        C1311   1.473       .  S
O41          C44   1.263       .  A
O41         Cd46   2.462       .  S
C42          O51   1.263       .  A
C42          O47   1.267       .  A
C42        C1228   1.469       .  S
O43          C49   1.262       .  A
O43         Cd46   2.463       .  S
C44          O52   1.266       .  A
C44        C1247   1.473       .  S
C45          O50   1.264       .  A
C45          O48   1.267       .  A
C45        C1308   1.473       .  S
Cd46         O53   2.478       .  S
Cd46         O52   2.498       .  S
Cd46         O51   2.442       .  S
Cd46         O47   2.500       .  S
Cd46         O50   2.442       .  S
Cd46         O48   2.505       .  S
C49          O53   1.263       .  A
C49        C1215   1.465       .  S
C54        C1180   1.535       .  S
C54        C1196   1.529   1_545  S
C54        C1244   1.531   1_545  S
C54        C1388   1.536       .  S
C55        C1132   1.524       .  S
C55        C1148   1.534       .  S
C55        C1164   1.535       .  S
C55        C1295   1.531       .  S
O56          C59   1.267       .  A
O56         Cd61   2.494       .  S
C57          O66   1.263       .  A
C57          O62   1.266       .  A
C57        C1084   1.468       .  S
O58          C64   1.265       .  A
O58         Cd61   2.458       .  S
C59          O67   1.262       .  A
C59        C1100   1.470       .  S
C60          O65   1.263       .  A
C60          O63   1.267       .  A
C60        C1119   1.465       .  S
Cd61         O68   2.446       .  S
Cd61         O67   2.444       .  S
Cd61         O66   2.450       .  S
Cd61         O62   2.488       .  S
Cd61         O65   2.440       .  S
Cd61         O63   2.473       .  S
C64          O68   1.264       .  A
C64        C1068   1.462       .  S
O69          C72   1.267       .  A
O69         Cd74   2.496       .  S
C70          O79   1.266       .  A
C70          O75   1.264       .  A
C70        C1055   1.470       .  S
O71          C77   1.264       .  A
O71         Cd74   2.475       .  S
C72          O80   1.263       .  A
C72        C1036   1.467       .  S
C73          O78   1.263       .  A
C73          O76   1.265       .  A
C73        C1116   1.468       .  S
Cd74         O81   2.458       .  S
Cd74         O80   2.425       .  S
Cd74         O79   2.488       .  S
Cd74         O75   2.452       .  S
Cd74         O78   2.444       .  S
Cd74         O76   2.488       .  S
C77          O81   1.262       .  A
C77        C1212   1.465       .  S
C82        C1004   1.528       .  S
C82        C1020   1.535       .  S
C82        C1052   1.534   1_545  S
C82        C1183   1.531       .  S
O83          C86   1.266       .  A
O83         Cd88   2.514       .  S
C84          O93   1.265       .  A
C84          O89   1.267       .  A
C84         C956   1.473       .  S
O85          C91   1.262       .  A
O85         Cd88   2.461       .  S
C86          O94   1.260       .  A
C86         C972   1.472       .  S
C87          O92   1.261       .  A
C87          O90   1.266       .  A
C87         C988   1.468       .  S
Cd88         O95   2.469       .  S
Cd88         O94   2.453       .  S
Cd88         O93   2.443       .  S
Cd88         O89   2.502       .  S
Cd88         O92   2.442       .  S
Cd88         O90   2.503       .  S
C91          O95   1.265       .  A
C91        C1260   1.466       .  S
O96          C99   1.267       .  A
O96        Cd101   2.512       .  S
C97         O106   1.268       .  A
C97         O102   1.263       .  A
C97        C1455   1.472       .  S
O98         C104   1.266       .  A
O98        Cd101   2.483       .  S
C99         O107   1.263       .  A
C99         C940   1.471       .  S
C100        O105   1.264       .  A
C100        O103   1.266       .  A
C100        C991   1.470       .  S
Cd101       O108   2.429       .  S
Cd101       O107   2.433       .  S
Cd101       O106   2.494       .  S
Cd101       O102   2.457       .  S
Cd101       O105   2.456       .  S
Cd101       O103   2.484       .  S
C104        O108   1.264       .  A
C104       C1071   1.465       .  S
O109        C112   1.261       .  A
O109       Cd114   2.448       .  S
C110        O119   1.263       .  A
C110        O115   1.267       .  A
C110        C892   1.471       .  S
O111        C117   1.265       .  A
O111       Cd114   2.460       .  S
C112        O120   1.266       .  A
C112        C911   1.473       .  S
C113        O118   1.264       .  A
C113        O116   1.263       .  A
C113        C876   1.463       .  S
Cd114       O121   2.488       .  S
Cd114       O120   2.525       .  S
Cd114       O119   2.441       .  S
Cd114       O115   2.513       .  S
Cd114       O118   2.479       .  S
Cd114       O116   2.437       .  S
C117        O121   1.268       .  A
C117        C924   1.473       .  S
O122        C125   1.268       .  A
O122       Cd127   2.503       .  S
C123        O132   1.262       .  A
C123        O128   1.268       .  A
C123        C860   1.471       .  S
O124        C130   1.267       .  A
O124       Cd127   2.479       .  S
C125        O133   1.264       .  A
C125       C1023   1.476       .  S
C126        O131   1.265       .  A
C126        O129   1.266       .  A
C126        C927   1.473       .  S
Cd127       O134   2.439       .  S
Cd127       O133   2.462       .  S
Cd127       O132   2.432       .  S
Cd127       O128   2.510       .  S
Cd127       O131   2.478       .  S
Cd127       O129   2.471       .  S
C130        O134   1.264       .  A
C130       C1356   1.465       .  S
C135        C844   1.531       .  S
C135        C908   1.532       .  S
C135        C975   1.536       .  S
C135       C1135   1.529       .  S
O136        C139   1.269       .  A
O136       Cd141   2.500       .  S
C137        O146   1.265       .  A
C137        O142   1.263       .  A
C137        C812   1.469       .  S
O138        C144   1.265       .  A
O138       Cd141   2.496       .  S
C139        O147   1.263       .  A
C139        C796   1.466       .  S
C140        O145   1.265       .  A
C140        O143   1.266       .  A
C140        C828   1.470       .  S
Cd141       O148   2.439       .  S
Cd141       O147   2.419       .  S
Cd141       O146   2.486       .  S
Cd141       O142   2.465       .  S
Cd141       O145   2.449       .  S
Cd141       O143   2.482       .  S
C144        O148   1.262       .  A
C144       C1324   1.466       .  S
O149        C152   1.266       .  A
O149       Cd154   2.520       .  S
C150        O159   1.264       .  A
C150        O155   1.267       .  A
C150        C780   1.470       .  S
O151        C157   1.264       .  A
O151       Cd154   2.475       .  S
C152        O160   1.261       .  A
C152       C1167   1.471       .  S
C153        O158   1.263       .  A
C153        O156   1.266       .  A
C153        C831   1.471       .  S
Cd154       O161   2.448       .  S
Cd154       O160   2.445       .  S
Cd154       O159   2.447       .  S
Cd154       O155   2.495       .  S
Cd154       O158   2.458       .  S
Cd154       O156   2.493       .  S
C157        O161   1.263       .  A
C157        C879   1.464       .  S
C162        C767   1.522       .  S
C162        C815   1.527   1_455  S
C162       C1103   1.533       .  S
C162       C1423   1.528       .  S
O163        C166   1.267       .  A
O163       Cd168   2.479       .  S
C164        O173   1.265       .  A
C164        O169   1.261       .  A
C164        C732   1.468       .  S
O165        C171   1.264       .  A
O165       Cd168   2.427       .  S
C166        O174   1.263       .  A
C166       C1375   1.466       .  S
C167        O172   1.264       .  A
C167        O170   1.262       .  A
C167        C716   1.465       .  S
Cd168       O175   2.487       .  S
Cd168       O174   2.442       .  S
Cd168       O173   2.502       .  S
Cd168       O169   2.449       .  S
Cd168       O172   2.498       .  S
Cd168       O170   2.426       .  S
C171        O175   1.267       .  A
C171        C751   1.467       .  S
O176        C179   1.266       .  A
O176       Cd181   2.505       .  S
C177        O186   1.265       .  A
C177        O182   1.267       .  A
C177       C1343   1.471       .  S
O178        C184   1.263       .  A
O178       Cd181   2.460       .  S
C179        O187   1.262       .  A
C179        C700   1.469       .  S
C180        O185   1.266       .  A
C180        O183   1.264       .  A
C180        C684   1.470       .  S
Cd181       O188   2.482       .  S
Cd181       O187   2.439       .  S
Cd181       O186   2.443       .  S
Cd181       O182   2.495       .  S
Cd181       O185   2.493       .  S
Cd181       O183   2.452       .  S
C184        O188   1.265       .  A
C184        C748   1.467       .  S
C189        C636   1.526       .  S
C189        C655   1.533       .  S
C189        C668   1.531       .  S
C189       C1151   1.523       .  S
O190        C193   1.267       .  A
O190       Cd195   2.506       .  S
C191        O200   1.262       .  A
C191        O196   1.266       .  A
C191        C652   1.470       .  S
O192        C198   1.263       .  A
O192       Cd195   2.450       .  S
C193        O201   1.264       .  A
C193       C1279   1.470       .  S
C194        O199   1.264       .  A
C194        O197   1.264       .  A
C194        C607   1.464       .  S
Cd195       O202   2.503       .  S
Cd195       O201   2.443       .  S
Cd195       O200   2.445       .  S
Cd195       O196   2.499       .  S
Cd195       O199   2.468       .  S
Cd195       O197   2.450       .  S
C198        O202   1.267       .  A
C198        C623   1.472       .  S
O203        C206   1.267       .  A
O203       Cd208   2.495       .  S
C204        O213   1.262       .  A
C204        O209   1.267       .  A
C204        C588   1.475       .  S
O205        C211   1.265       .  A
O205       Cd208   2.464       .  S
C206        O214   1.264       .  A
C206       C1231   1.469       .  S
C207        O212   1.263       .  A
C207        O210   1.266       .  A
C207        C620   1.471       .  S
Cd208       O215   2.464       .  S
Cd208       O214   2.436       .  S
Cd208       O213   2.459       .  S
Cd208       O209   2.517       .  S
Cd208       O212   2.460       .  S
Cd208       O210   2.492       .  S
C211        O215   1.264       .  A
C211        C572   1.465       .  S
C216        C559   1.527       .  S
C216        C591   1.537       .  S
C216        C735   1.526   1_565  S
C216       C1199   1.533       .  S
C217        C524   1.530       .  S
C217        C543   1.532       .  S
C217        C703   1.534   1_455  S
C217       C1439   1.534       .  S
O218        C221   1.263       .  A
O218       Cd223   2.458       .  S
C219        O228   1.264       .  A
C219        O224   1.267       .  A
C219        C799   1.470       .  S
O220        C226   1.265       .  A
O220       Cd223   2.503       .  S
C221        O229   1.266       .  A
C221        C495   1.471       .  S
C222        O227   1.265       .  A
C222        O225   1.267       .  A
C222        C511   1.471       .  S
Cd223       O230   2.453       .  S
Cd223       O229   2.496       .  S
Cd223       O228   2.440       .  S
Cd223       O224   2.494       .  S
Cd223       O227   2.446       .  S
Cd223       O225   2.498       .  S
C226        O230   1.262       .  A
C226        C687   1.470       .  S
O231        C234   1.266       .  A
O231       Cd236   2.501       .  S
C232        O241   1.267       .  A
C232        O237   1.263       .  A
C232        C671   1.473       .  S
O233        C239   1.263       .  A
O233       Cd236   2.478       .  S
C234        O242   1.263       .  A
C234        C783   1.470       .  S
C235        O240   1.263       .  A
C235        O238   1.267       .  A
C235        C508   1.471       .  S
Cd236       O243   2.455       .  S
Cd236       O242   2.445       .  S
Cd236       O241   2.500       .  S
Cd236       O237   2.456       .  S
Cd236       O240   2.435       .  S
Cd236       O238   2.503       .  S
C239        O243   1.263       .  A
C239        C479   1.465       .  S
C244        C463   1.534       .  S
C244        C492   1.528   1_455  S
C244        C527   1.530       .  S
C244        C764   1.526       .  S
O245        C248   1.267       .  A
O245       Cd250   2.505       .  S
C246        O255   1.263       .  A
C246        O251   1.268       .  A
C246        C959   1.472       .  S
O247        C253   1.264       .  A
O247       Cd250   2.466       .  S
C248        O256   1.263       .  A
C248        C431   1.478       .  S
C249        O254   1.265       .  A
C249        O252   1.262       .  A
C249        C604   1.464       .  S
Cd250       O257   2.516       .  S
Cd250       O256   2.482       .  S
Cd250       O255   2.444       .  S
Cd250       O251   2.513       .  S
Cd250       O254   2.477       .  S
Cd250       O252   2.448       .  S
C253        O257   1.268       .  A
C253        C444   1.479       .  S
O258        C261   1.262       .  A
O258       Cd263   2.471       .  S
C259        O268   1.262       .  A
C259        O264   1.269       .  A
C259        C943   1.466       .  S
O260        C266   1.267       .  A
O260       Cd263   2.477       .  S
C261        O269   1.265       .  A
C261        C540   1.473       .  S
C262        O267   1.266       .  A
C262        O265   1.268       .  A
C262        C447   1.475       .  S
Cd263       O270   2.424       .  S
Cd263       O269   2.505       .  S
Cd263       O268   2.412       .  S
Cd263       O264   2.501       .  S
Cd263       O267   2.474       .  S
Cd263       O265   2.473       .  S
C266        O270   1.260       .  A
C266        C415   1.460       .  S
O271        C274   1.264       .  A
O271       Cd276   2.468       .  S
C272        O281   1.263       .  A
C272        O277   1.269       .  A
C272        C895   1.474       .  S
O273        C279   1.265       .  A
O273       Cd276   2.505       .  S
C274        O282   1.265       .  A
C274        C380   1.471       .  S
C275        O280   1.264       .  A
C275        O278   1.265       .  A
C275        C396   1.474       .  S
Cd276       O283   2.441       .  S
Cd276       O282   2.484       .  S
Cd276       O281   2.406       .  S
Cd276       O277   2.529       .  S
Cd276       O280   2.461       .  S
Cd276       O278   2.502       .  S
C279        O283   1.262       .  A
C279        C476   1.468       .  S
O284        C287   1.269       .  A
O284       Cd289   2.496       .  S
C285        O294   1.262       .  A
C285        O290   1.267       .  A
C285        C367   1.480       .  S
O286        C292   1.265       .  A
O286       Cd289   2.471       .  S
C287        O295   1.264       .  A
C287        C863   1.473       .  S
C288        O293   1.263       .  A
C288        O291   1.265       .  A
C288        C399   1.473       .  S
Cd289       O296   2.452       .  S
Cd289       O295   2.455       .  S
Cd289       O294   2.470       .  S
Cd289       O290   2.533       .  S
Cd289       O293   2.475       .  S
Cd289       O291   2.489       .  S
C292        O296   1.263       .  A
C292        C719   1.463       .  S
C297        C383   1.533       .  S
C297        C428   1.531       .  S
C297        C639   1.527       .  S
C297        C847   1.530       .  S
O298        C301   1.267       .  A
O298       Cd303   2.519       .  S
C299        O308   1.264       .  A
C299        O304   1.268       .  A
C299       C1087   1.469       .  S
O300        C306   1.264       .  A
O300       Cd303   2.463       .  S
C301        O309   1.261       .  A
C301        C460   1.471       .  S
C302        O307   1.265       .  A
C302        O305   1.265       .  A
C302        C412   1.463       .  S
Cd303       O310   2.458       .  S
Cd303       O309   2.426       .  S
Cd303       O308   2.433       .  S
Cd303       O304   2.496       .  S
Cd303       O307   2.465       .  S
Cd303       O305   2.445       .  S
C306        O310   1.264       .  A
C306        C348   1.465       .  S
O311        C314   1.267       .  A
O311       Cd316   2.476       .  S
C312        O321   1.264       .  A
C312        O317   1.262       .  A
C312        C332   1.468       .  S
O313        C319   1.265       .  A
O313       Cd316   2.433       .  S
C314        O322   1.264       .  A
C314       C1039   1.465       .  S
C315        O320   1.265       .  A
C315        O318   1.260       .  A
C315        C575   1.464       .  S
Cd316       O323   2.473       .  S
Cd316       O322   2.440       .  S
Cd316       O321   2.505       .  S
Cd316       O317   2.439       .  S
Cd316       O320   2.497       .  S
Cd316       O318   2.423       .  S
C319        O323   1.268       .  A
C319        C351   1.465       .  S
C324        C335   1.529       .  S
C324        C364   1.536   1_565  S
C324        C556   1.535       .  S
C324       C1007   1.527       .  S
C325        C330   1.380       .  A
C325        C326   1.409       .  A
C325        O331   1.323       .  A
C326        C327   1.408       .  A
C326        H337   1.082       .  S
C327        C336   1.369       .  A
C327        C328   1.379       .  A
C328        C329   1.397       .  A
C328        O334   1.311       .  A
C329        C330   1.396       .  A
C329        H338   1.083       .  S
C330        C333   1.355       .  A
O331        C332   1.333       .  A
C332        C333   1.388       .  A
C333        H339   1.083       .  S
O334        C335   1.331       .  A
C335        C336   1.399       .  A
C336        H340   1.082       .  S
C341        C346   1.381       .  A
C341        C342   1.403       .  A
C341        O347   1.317       .  A
C342        C343   1.402       .  A
C342        H353   1.083       .  S
C343        C352   1.363       .  A
C343        C344   1.381       .  A
C344        C345   1.401       .  A
C344        O350   1.316       .  A
C345        C346   1.400       .  A
C345        H354   1.084       .  S
C346        C349   1.361       .  A
O347        C348   1.330       .  A
C348        C349   1.390       .  A
C349        H355   1.084       .  S
O350        C351   1.329       .  A
C351        C352   1.391       .  A
C352        H356   1.083       .  S
C357        C362   1.378       .  A
C357        C358   1.405       .  A
C357        O363   1.323       .  A
C358        C359   1.406       .  A
C358        H369   1.081       .  S
C359        C368   1.362       .  A
C359        C360   1.380       .  A
C360        C361   1.405       .  A
C360        O366   1.324       .  A
C361        C362   1.406       .  A
C361        H370   1.082       .  S
C362        C365   1.358       .  A
O363        C364   1.334       .  A
C364        C365   1.403       .  A
C365        H371   1.082       .  S
O366        C367   1.333       .  A
C367        C368   1.393       .  A
C368        H372   1.082       .  S
C373        C378   1.380       .  A
C373        C374   1.404       .  A
C373        O379   1.320       .  A
C374        C375   1.404       .  A
C374        H385   1.084       .  S
C375        C384   1.362       .  A
C375        C376   1.378       .  A
C376        C377   1.403       .  A
C376        O382   1.318       .  A
C377        C378   1.403       .  A
C377        H386   1.084       .  S
C378        C381   1.362       .  A
O379        C380   1.331       .  A
C380        C381   1.392       .  A
C381        H387   1.083       .  S
O382        C383   1.335       .  A
C383        C384   1.398       .  A
C384        H388   1.082       .  S
C389        C394   1.380       .  A
C389        C390   1.406       .  A
C389        O395   1.323       .  A
C390        C391   1.406       .  A
C390        H401   1.082       .  S
C391        C400   1.365       .  A
C391        C392   1.380       .  A
C392        C393   1.403       .  A
C392        O398   1.320       .  A
C393        C394   1.403       .  A
C393        H402   1.082       .  S
C394        C397   1.361       .  A
O395        C396   1.333       .  A
C396        C397   1.391       .  A
C397        H403   1.082       .  S
O398        C399   1.331       .  A
C399        C400   1.392       .  A
C400        H404   1.082       .  S
C405        C410   1.381       .  A
C405        C406   1.403       .  A
C405        O411   1.318       .  A
C406        C407   1.402       .  A
C406        H417   1.082       .  S
C407        C416   1.362       .  A
C407        C408   1.381       .  A
C408        C409   1.400       .  A
C408        O414   1.314       .  A
C409        C410   1.399       .  A
C409        H418   1.083       .  S
C410        C413   1.358       .  A
O411        C412   1.330       .  A
C412        C413   1.389       .  A
C413        H419   1.083       .  S
O414        C415   1.329       .  A
C415        C416   1.389       .  A
C416        H420   1.082       .  S
C421        C426   1.378       .  A
C421        C422   1.405       .  A
C421        O427   1.318       .  A
C422        C423   1.404       .  A
C422        H433   1.083       .  S
C423        C432   1.365       .  A
C423        C424   1.380       .  A
C424        C425   1.408       .  A
C424        O430   1.322       .  A
C425        C426   1.406       .  A
C425        H434   1.082       .  S
C426        C429   1.366       .  A
O427        C428   1.335       .  A
C428        C429   1.398       .  A
C429        H435   1.082       .  S
O430        C431   1.334       .  A
C431        C432   1.392       .  A
C432        H436   1.083       .  S
C437        C442   1.380       .  A
C437        C438   1.407       .  A
C437        O443   1.324       .  A
C438        C439   1.406       .  A
C438        H449   1.082       .  S
C439        C448   1.364       .  A
C439        C440   1.380       .  A
C440        C441   1.404       .  A
C440        O446   1.321       .  A
C441        C442   1.405       .  A
C441        H450   1.082       .  S
C442        C445   1.362       .  A
O443        C444   1.333       .  A
C444        C445   1.392       .  A
C445        H451   1.082       .  S
O446        C447   1.332       .  A
C447        C448   1.392       .  A
C448        H452   1.082       .  S
C453        C458   1.381       .  A
C453        C454   1.406       .  A
C453        O459   1.324       .  A
C454        C455   1.407       .  A
C454        H465   1.084       .  S
C455        C464   1.361       .  A
C455        C456   1.378       .  A
C456        C457   1.399       .  A
C456        O462   1.317       .  A
C457        C458   1.400       .  A
C457        H466   1.084       .  S
C458        C461   1.356       .  A
O459        C460   1.333       .  A
C460        C461   1.389       .  A
C461        H467   1.083       .  S
O462        C463   1.332       .  A
C463        C464   1.402       .  A
C464        H468   1.082       .  S
C469        C474   1.381       .  A
C469        C470   1.405       .  A
C469        O475   1.322       .  A
C470        C471   1.405       .  A
C470        H481   1.083       .  S
C471        C480   1.364       .  A
C471        C472   1.381       .  A
C472        C473   1.399       .  A
C472        O478   1.316       .  A
C473        C474   1.398       .  A
C473        H482   1.084       .  S
C474        C477   1.356       .  A
O475        C476   1.332       .  A
C476        C477   1.389       .  A
C477        H483   1.083       .  S
O478        C479   1.328       .  A
C479        C480   1.392       .  A
C480        H484   1.083       .  S
C485        C490   1.379       .  A
C485        C486   1.407       .  A
C485        O491   1.322       .  A
C486        C487   1.406       .  A
C486        H497   1.083       .  S
C487        C496   1.366       .  A
C487        C488   1.380       .  A
C488        C489   1.402       .  A
C488        O494   1.317       .  A
C489        C490   1.401       .  A
C489        H498   1.083       .  S
C490        C493   1.358       .  A
O491        C492   1.335       .  A
C492        C493   1.396       .  A
C493        H499   1.083       .  S
O494        C495   1.330       .  A
C495        C496   1.393       .  A
C496        H500   1.083       .  S
C501        C506   1.380       .  A
C501        C502   1.408       .  A
C501        O507   1.323       .  A
C502        C503   1.408       .  A
C502        H513   1.083       .  S
C503        C512   1.368       .  A
C503        C504   1.381       .  A
C504        C505   1.400       .  A
C504        O510   1.316       .  A
C505        C506   1.399       .  A
C505        H514   1.082       .  S
C506        C509   1.357       .  A
O507        C508   1.333       .  A
C508        C509   1.390       .  A
C509        H515   1.082       .  S
O510        C511   1.329       .  A
C511        C512   1.394       .  A
C512        H516   1.083       .  S
C517        C522   1.378       .  A
C517        C518   1.407       .  A
C517        O523   1.321       .  A
C518        C519   1.406       .  A
C518        H529   1.082       .  S
C519        C528   1.363       .  A
C519        C520   1.379       .  A
C520        C521   1.404   1_455  A
C520        O526   1.320   1_455  A
C521        C522   1.403   1_655  A
C521        H530   1.082       .  S
C522        C525   1.362   1_455  A
O523        C524   1.336       .  A
C524        C525   1.398   1_455  A
C525        H531   1.081       .  S
O526        C527   1.333   1_655  A
C527        C528   1.399       .  A
C528        H532   1.083       .  S
C533        C538   1.381       .  A
C533        C534   1.402       .  A
C533        O539   1.318       .  A
C534        C535   1.401       .  A
C534        H545   1.083       .  S
C535        C544   1.357       .  A
C535        C536   1.377       .  A
C536        C537   1.407       .  A
C536        O542   1.322       .  A
C537        C538   1.406       .  A
C537        H546   1.083       .  S
C538        C541   1.366       .  A
O539        C540   1.331       .  A
C540        C541   1.393       .  A
C541        H547   1.083       .  S
O542        C543   1.332       .  A
C543        C544   1.397       .  A
C544        H548   1.083       .  S
C549        C554   1.378   1_545  A
C549        C550   1.405       .  A
C549        O555   1.323       .  A
C550        C551   1.406       .  A
C550        H561   1.081       .  S
C551        C560   1.359       .  A
C551        C552   1.379   1_545  A
C552        C553   1.404       .  A
C552        O558   1.323       .  A
C553        C554   1.406       .  A
C553        H562   1.082       .  S
C554        C557   1.359       .  A
O555        C556   1.335   1_545  A
C556        C557   1.402       .  A
C557        H563   1.082       .  S
O558        C559   1.333       .  A
C559        C560   1.397   1_565  A
C560        H564   1.082       .  S
C565        C570   1.381       .  A
C565        C566   1.400       .  A
C565        O571   1.317       .  A
C566        C567   1.400       .  A
C566        H577   1.083       .  S
C567        C576   1.355       .  A
C567        C568   1.381       .  A
C568        C569   1.403       .  A
C568        O574   1.320       .  A
C569        C570   1.403       .  A
C569        H578   1.082       .  S
C570        C573   1.361       .  A
O571        C572   1.329       .  A
C572        C573   1.391       .  A
C573        H579   1.082       .  S
O574        C575   1.330       .  A
C575        C576   1.389       .  A
C576        H580   1.083       .  S
C581        C586   1.380       .  A
C581        C582   1.403       .  A
C581        O587   1.317       .  A
C582        C583   1.401       .  A
C582        H593   1.083       .  S
C583        C592   1.363       .  A
C583        C584   1.376       .  A
C584        C585   1.409       .  A
C584        O590   1.320       .  A
C585        C586   1.407       .  A
C585        H594   1.083       .  S
C586        C589   1.369       .  A
O587        C588   1.330       .  A
C588        C589   1.394       .  A
C589        H595   1.083       .  S
O590        C591   1.339       .  A
C591        C592   1.396       .  A
C592        H596   1.080       .  S
C597        C602   1.381       .  A
C597        C598   1.401       .  A
C597        O603   1.316       .  A
C598        C599   1.400       .  A
C598        H609   1.084       .  S
C599        C608   1.359       .  A
C599        C600   1.381       .  A
C600        C601   1.402       .  A
C600        O606   1.318       .  A
C601        C602   1.401       .  A
C601        H610   1.084       .  S
C602        C605   1.361       .  A
O603        C604   1.330       .  A
C604        C605   1.390       .  A
C605        H611   1.083       .  S
O606        C607   1.330       .  A
C607        C608   1.389       .  A
C608        H612   1.083       .  S
C613        C618   1.381       .  A
C613        C614   1.402       .  A
C613        O619   1.318       .  A
C614        C615   1.401       .  A
C614        H625   1.082       .  S
C615        C624   1.359       .  A
C615        C616   1.380       .  A
C616        C617   1.406       .  A
C616        O622   1.322       .  A
C617        C618   1.406       .  A
C617        H626   1.082       .  S
C618        C621   1.365       .  A
O619        C620   1.330       .  A
C620        C621   1.393       .  A
C621        H627   1.082       .  S
O622        C623   1.332       .  A
C623        C624   1.391       .  A
C624        H628   1.082       .  S
C629        C634   1.379       .  A
C629        C630   1.404       .  A
C629        O635   1.318       .  A
C630        C631   1.403       .  A
C630        H641   1.084       .  S
C631        C640   1.361       .  A
C631        C632   1.378       .  A
C632        C633   1.403       .  A
C632        O638   1.317       .  A
C633        C634   1.402       .  A
C633        H642   1.083       .  S
C634        C637   1.361       .  A
O635        C636   1.334       .  A
C636        C637   1.397       .  A
C637        H643   1.083       .  S
O638        C639   1.334       .  A
C639        C640   1.399       .  A
C640        H644   1.082       .  S
C645        C650   1.381       .  A
C645        C646   1.401       .  A
C645        O651   1.321       .  A
C646        C647   1.402       .  A
C646        H657   1.084       .  S
C647        C656   1.356       .  A
C647        C648   1.378       .  A
C648        C649   1.404       .  A
C648        O654   1.321       .  A
C649        C650   1.405       .  A
C649        H658   1.082       .  S
C650        C653   1.360       .  A
O651        C652   1.330       .  A
C652        C653   1.392       .  A
C653        H659   1.082       .  S
O654        C655   1.335       .  A
C655        C656   1.399       .  A
C656        H660   1.082       .  S
C661        C666   1.379       .  A
C661        C662   1.406       .  A
C661        O667   1.322       .  A
C662        C663   1.406       .  A
C662        H673   1.083       .  S
C663        C672   1.366       .  A
C663        C664   1.380       .  A
C664        C665   1.402       .  A
C664        O670   1.318       .  A
C665        C666   1.401       .  A
C665        H674   1.084       .  S
C666        C669   1.358       .  A
O667        C668   1.334       .  A
C668        C669   1.396       .  A
C669        H675   1.083       .  S
O670        C671   1.331       .  A
C671        C672   1.393       .  A
C672        H676   1.082       .  S
C677        C682   1.380       .  A
C677        C678   1.407       .  A
C677        O683   1.322       .  A
C678        C679   1.406       .  A
C678        H689   1.082       .  S
C679        C688   1.366       .  A
C679        C680   1.381       .  A
C680        C681   1.401       .  A
C680        O686   1.316       .  A
C681        C682   1.400       .  A
C681        H690   1.083       .  S
C682        C685   1.359       .  A
O683        C684   1.332       .  A
C684        C685   1.389       .  A
C685        H691   1.083       .  S
O686        C687   1.329       .  A
C687        C688   1.393       .  A
C688        H692   1.082       .  S
C693        C698   1.381       .  A
C693        C694   1.401       .  A
C693        O699   1.315       .  A
C694        C695   1.400       .  A
C694        H705   1.083       .  S
C695        C704   1.360       .  A
C695        C696   1.378       .  A
C696        C697   1.407       .  A
C696        O702   1.319       .  A
C697        C698   1.405       .  A
C697        H706   1.084       .  S
C698        C701   1.368       .  A
O699        C700   1.329       .  A
C700        C701   1.393       .  A
C701        H707   1.083       .  S
O702        C703   1.337       .  A
C703        C704   1.396       .  A
C704        H708   1.082       .  S
C709        C714   1.381       .  A
C709        C710   1.404       .  A
C709        O715   1.321       .  A
C710        C711   1.404       .  A
C710        H721   1.082       .  S
C711        C720   1.362       .  A
C711        C712   1.382       .  A
C712        C713   1.398       .  A
C712        O718   1.316       .  A
C713        C714   1.398       .  A
C713        H722   1.083       .  S
C714        C717   1.354       .  A
O715        C716   1.331       .  A
C716        C717   1.388       .  A
C717        H723   1.083       .  S
O718        C719   1.328       .  A
C719        C720   1.391       .  A
C720        H724   1.082       .  S
C725        C730   1.381       .  A
C725        C726   1.399       .  A
C725        O731   1.316       .  A
C726        C727   1.399       .  A
C726        H737   1.083       .  S
C727        C736   1.353       .  A
C727        C728   1.379       .  A
C728        C729   1.407       .  A
C728        O734   1.324       .  A
C729        C730   1.407       .  A
C729        H738   1.082       .  S
C730        C733   1.366       .  A
O731        C732   1.329       .  A
C732        C733   1.393       .  A
C733        H739   1.082       .  S
O734        C735   1.334       .  A
C735        C736   1.395       .  A
C736        H740   1.083       .  S
C741        C746   1.381       .  A
C741        C742   1.399       .  A
C741        O747   1.317       .  A
C742        C743   1.399       .  A
C742        H753   1.084       .  S
C743        C752   1.356       .  A
C743        C744   1.381       .  A
C744        C745   1.405       .  A
C744        O750   1.321       .  A
C745        C746   1.405       .  A
C745        H754   1.083       .  S
C746        C749   1.364       .  A
O747        C748   1.329       .  A
C748        C749   1.392       .  A
C749        H755   1.083       .  S
O750        C751   1.332       .  A
C751        C752   1.389       .  A
C752        H756   1.084       .  S
C757        C762   1.379   1_655  A
C757        C758   1.403       .  A
C757        O763   1.319       .  A
C758        C759   1.403       .  A
C758        H769   1.081       .  S
C759        C768   1.360       .  A
C759        C760   1.380   1_655  A
C760        C761   1.405       .  A
C760        O766   1.321       .  A
C761        C762   1.405       .  A
C761        H770   1.081       .  S
C762        C765   1.363       .  A
O763        C764   1.333   1_655  A
C764        C765   1.398       .  A
C765        H771   1.081       .  S
O766        C767   1.333       .  A
C767        C768   1.395   1_455  A
C768        H772   1.082       .  S
C773        C778   1.381       .  A
C773        C774   1.400       .  A
C773        O779   1.316   1_554  A
C774        C775   1.399       .  A
C774        H785   1.083       .  S
C775        C784   1.358       .  A
C775        C776   1.380       .  A
C776        C777   1.407       .  A
C776        O782   1.323       .  A
C777        C778   1.406       .  A
C777        H786   1.083       .  S
C778        C781   1.366   1_554  A
O779        C780   1.329       .  A
C780        C781   1.393       .  A
C781        H787   1.083       .  S
O782        C783   1.332       .  A
C783        C784   1.389       .  A
C784        H788   1.083       .  S
C789        C794   1.381       .  A
C789        C790   1.399       .  A
C789        O795   1.314   1_554  A
C790        C791   1.398       .  A
C790        H801   1.081       .  S
C791        C800   1.357       .  A
C791        C792   1.380       .  A
C792        C793   1.408       .  A
C792        O798   1.322       .  A
C793        C794   1.407       .  A
C793        H802   1.082       .  S
C794        C797   1.368   1_554  A
O795        C796   1.328       .  A
C796        C797   1.393       .  A
C797        H803   1.082       .  S
O798        C799   1.333       .  A
C799        C800   1.389       .  A
C800        H804   1.082       .  S
C805        C810   1.381       .  A
C805        C806   1.402       .  A
C805        O811   1.318       .  A
C806        C807   1.401       .  A
C806        H817   1.084       .  S
C807        C816   1.359       .  A
C807        C808   1.379       .  A
C808        C809   1.405       .  A
C808        O814   1.320       .  A
C809        C810   1.404       .  A
C809        H818   1.083       .  S
C810        C813   1.364       .  A
O811        C812   1.330       .  A
C812        C813   1.392       .  A
C813        H819   1.083       .  S
O814        C815   1.334       .  A
C815        C816   1.395       .  A
C816        H820   1.083   1_655  S
C821        C826   1.380       .  A
C821        C822   1.406       .  A
C821        O827   1.321       .  A
C822        C823   1.405       .  A
C822        H833   1.082       .  S
C823        C832   1.365       .  A
C823        C824   1.381       .  A
C824        C825   1.402       .  A
C824        O830   1.318       .  A
C825        C826   1.401       .  A
C825        H834   1.082       .  S
C826        C829   1.359       .  A
O827        C828   1.332       .  A
C828        C829   1.390       .  A
C829        H835   1.082       .  S
O830        C831   1.330       .  A
C831        C832   1.392       .  A
C832        H836   1.082       .  S
C837        C842   1.378       .  A
C837        C838   1.405       .  A
C837        O843   1.320       .  A
C838        C839   1.405       .  A
C838        H849   1.083       .  S
C839        C848   1.360       .  A
C839        C840   1.379       .  A
C840        C841   1.407       .  A
C840        O846   1.324       .  A
C841        C842   1.408       .  A
C841        H850   1.083       .  S
C842        C845   1.365       .  A
O843        C844   1.335       .  A
C844        C845   1.400       .  A
C845        H851   1.082       .  S
O846        C847   1.334       .  A
C847        C848   1.397       .  A
C848        H852   1.083       .  S
C853        C858   1.380       .  A
C853        C854   1.406       .  A
C853        O859   1.323   1_554  A
C854        C855   1.407       .  A
C854        H865   1.081       .  S
C855        C864   1.366       .  A
C855        C856   1.380       .  A
C856        C857   1.402       .  A
C856        O862   1.318       .  A
C857        C858   1.401       .  A
C857        H866   1.081       .  S
C858        C861   1.358   1_554  A
O859        C860   1.332       .  A
C860        C861   1.390       .  A
C861        H867   1.082       .  S
O862        C863   1.331       .  A
C863        C864   1.392       .  A
C864        H868   1.082       .  S
C869        C874   1.381       .  A
C869        C870   1.404       .  A
C869        O875   1.319       .  A
C870        C871   1.404       .  A
C870        H881   1.084       .  S
C871        C880   1.363       .  A
C871        C872   1.381       .  A
C872        C873   1.398       .  A
C872        O878   1.315       .  A
C873        C874   1.398       .  A
C873        H882   1.084       .  S
C874        C877   1.356       .  A
O875        C876   1.331       .  A
C876        C877   1.388       .  A
C877        H883   1.083       .  S
O878        C879   1.328       .  A
C879        C880   1.392       .  A
C880        H884   1.083       .  S
C885        C890   1.381       .  A
C885        C886   1.396       .  A
C885        O891   1.314   1_554  A
C886        C887   1.396       .  A
C886        H897   1.083       .  S
C887        C896   1.352       .  A
C887        C888   1.380       .  A
C888        C889   1.411       .  A
C888        O894   1.327       .  A
C889        C890   1.411       .  A
C889        H898   1.084       .  S
C890        C893   1.371   1_554  A
O891        C892   1.327       .  A
C892        C893   1.396       .  A
C893        H899   1.083       .  S
O894        C895   1.335       .  A
C895        C896   1.387       .  A
C896        H900   1.083       .  S
C901        C906   1.379       .  A
C901        C902   1.411       .  A
C901        O907   1.326       .  A
C902        C903   1.410       .  A
C902        H913   1.083       .  S
C903        C912   1.371       .  A
C903        C904   1.380       .  A
C904        C905   1.399       .  A
C904        O910   1.316       .  A
C905        C906   1.399       .  A
C905        H914   1.084       .  S
C906        C909   1.355       .  A
O907        C908   1.337       .  A
C908        C909   1.395       .  A
C909        H915   1.083       .  S
O910        C911   1.329       .  A
C911        C912   1.396       .  A
C912        H916   1.083       .  S
C917        C922   1.380       .  A
C917        C918   1.404       .  A
C917        O923   1.321       .  A
C918        C919   1.404       .  A
C918        H929   1.082       .  S
C919        C928   1.363       .  A
C919        C920   1.380       .  A
C920        C921   1.405       .  A
C920        O926   1.321       .  A
C921        C922   1.405       .  A
C921        H930   1.082       .  S
C922        C925   1.363       .  A
O923        C924   1.331       .  A
C924        C925   1.393       .  A
C925        H931   1.082       .  S
O926        C927   1.332       .  A
C927        C928   1.392       .  A
C928        H932   1.082       .  S
C933        C938   1.380       .  A
C933        C934   1.408       .  A
C933        O939   1.324   1_554  A
C934        C935   1.407       .  A
C934        H945   1.081       .  S
C935        C944   1.368       .  A
C935        C936   1.381       .  A
C936        C937   1.398       .  A
C936        O942   1.314       .  A
C937        C938   1.397       .  A
C937        H946   1.081       .  S
C938        C941   1.355   1_554  A
O939        C940   1.333       .  A
C940        C941   1.389       .  A
C941        H947   1.082       .  S
O942        C943   1.328       .  A
C943        C944   1.393       .  A
C944        H948   1.082       .  S
C949        C954   1.380       .  A
C949        C950   1.409       .  A
C949        O955   1.324   1_554  A
C950        C951   1.409       .  A
C950        H961   1.083       .  S
C951        C960   1.369       .  A
C951        C952   1.381       .  A
C952        C953   1.400       .  A
C952        O958   1.316       .  A
C953        C954   1.399       .  A
C953        H962   1.083       .  S
C954        C957   1.357   1_554  A
O955        C956   1.334       .  A
C956        C957   1.389       .  A
C957        H963   1.083       .  S
O958        C959   1.329       .  A
C959        C960   1.395       .  A
C960        H964   1.083       .  S
C965        C970   1.380       .  A
C965        C966   1.404       .  A
C965        O971   1.318       .  A
C966        C967   1.402       .  A
C966        H977   1.082       .  S
C967        C976   1.362       .  A
C967        C968   1.377       .  A
C968        C969   1.406       .  A
C968        O974   1.319       .  A
C969        C970   1.405       .  A
C969        H978   1.083       .  S
C970        C973   1.366       .  A
O971        C972   1.331       .  A
C972        C973   1.392       .  A
C973        H979   1.083       .  S
O974        C975   1.336       .  A
C975        C976   1.398       .  A
C976        H980   1.082       .  S
C981        C986   1.381       .  A
C981        C982   1.402       .  A
C981        O987   1.316       .  A
C982        C983   1.401       .  A
C982        H993   1.082       .  S
C983        C992   1.361       .  A
C983        C984   1.380       .  A
C984        C985   1.406       .  A
C984        O990   1.321       .  A
C985        C986   1.405       .  A
C985        H994   1.082       .  S
C986        C989   1.366       .  A
O987        C988   1.330       .  A
C988        C989   1.392       .  A
C989        H995   1.082       .  S
O990        C991   1.332       .  A
C991        C992   1.390       .  A
C992        H996   1.083       .  S
C997       C1002   1.378   1_565  A
C997        C998   1.404       .  A
C997       O1003   1.318       .  A
C998        C999   1.403       .  A
C998       H1009   1.082       .  S
C999       C1008   1.362       .  A
C999       C1000   1.379   1_565  A
C1000      C1001   1.408       .  A
C1000      O1006   1.322       .  A
C1001      C1002   1.406       .  A
C1001      H1010   1.081       .  S
C1002      C1005   1.367       .  A
O1003      C1004   1.334   1_565  A
C1004      C1005   1.398       .  A
C1005      H1011   1.082       .  S
O1006      C1007   1.335   1_545  A
C1007      C1008   1.396       .  A
C1008      H1012   1.082       .  S
C1013      C1018   1.378       .  A
C1013      C1014   1.405       .  A
C1013      O1019   1.322       .  A
C1014      C1015   1.406       .  A
C1014      H1025   1.081       .  S
C1015      C1024   1.363       .  A
C1015      C1016   1.380       .  A
C1016      C1017   1.405       .  A
C1016      O1022   1.323       .  A
C1017      C1018   1.406       .  A
C1017      H1026   1.081       .  S
C1018      C1021   1.361       .  A
O1019      C1020   1.335       .  A
C1020      C1021   1.400       .  A
C1021      H1027   1.082       .  S
O1022      C1023   1.332       .  A
C1023      C1024   1.393       .  A
C1024      H1028   1.082       .  S
C1029      C1034   1.381   1_556  A
C1029      C1030   1.405   1_556  A
C1029      O1035   1.321       .  A
C1030      C1031   1.405       .  A
C1030      H1041   1.083       .  S
C1031      C1040   1.364       .  A
C1031      C1032   1.381       .  A
C1032      C1033   1.399       .  A
C1032      O1038   1.316       .  A
C1033      C1034   1.399       .  A
C1033      H1042   1.084       .  S
C1034      C1037   1.356   1_554  A
O1035      C1036   1.332       .  A
C1036      C1037   1.389       .  A
C1037      H1043   1.084       .  S
O1038      C1039   1.329       .  A
C1039      C1040   1.392       .  A
C1040      H1044   1.082       .  S
C1045      C1050   1.378       .  A
C1045      C1046   1.402       .  A
C1045      O1051   1.318       .  A
C1046      C1047   1.402       .  A
C1046      H1057   1.083       .  S
C1047      C1056   1.360       .  A
C1047      C1048   1.381       .  A
C1048      C1049   1.405       .  A
C1048      O1054   1.321       .  A
C1049      C1050   1.404       .  A
C1049      H1058   1.083       .  S
C1050      C1053   1.362       .  A
O1051      C1052   1.334       .  A
C1052      C1053   1.399       .  A
C1053      H1059   1.081       .  S
O1054      C1055   1.332       .  A
C1055      C1056   1.391       .  A
C1056      H1060   1.083       .  S
C1061      C1066   1.381       .  A
C1061      C1062   1.398       .  A
C1061      O1067   1.315       .  A
C1062      C1063   1.398       .  A
C1062      H1073   1.082       .  S
C1063      C1072   1.355       .  A
C1063      C1064   1.381       .  A
C1064      C1065   1.404       .  A
C1064      O1070   1.320       .  A
C1065      C1066   1.404       .  A
C1065      H1074   1.082       .  S
C1066      C1069   1.362       .  A
O1067      C1068   1.328       .  A
C1068      C1069   1.391       .  A
C1069      H1075   1.082       .  S
O1070      C1071   1.331       .  A
C1071      C1072   1.388       .  A
C1072      H1076   1.082       .  S
C1077      C1082   1.381       .  A
C1077      C1078   1.400       .  A
C1077      O1083   1.316   1_554  A
C1078      C1079   1.399       .  A
C1078      H1089   1.084       .  S
C1079      C1088   1.357       .  A
C1079      C1080   1.381       .  A
C1080      C1081   1.406       .  A
C1080      O1086   1.322       .  A
C1081      C1082   1.405       .  A
C1081      H1090   1.083       .  S
C1082      C1085   1.365   1_554  A
O1083      C1084   1.329       .  A
C1084      C1085   1.392       .  A
C1085      H1091   1.082       .  S
O1086      C1087   1.332       .  A
C1087      C1088   1.389       .  A
C1088      H1092   1.084       .  S
C1093      C1098   1.381       .  A
C1093      C1094   1.403       .  A
C1093      O1099   1.321       .  A
C1094      C1095   1.403       .  A
C1094      H1105   1.083       .  S
C1095      C1104   1.361       .  A
C1095      C1096   1.378       .  A
C1096      C1097   1.404       .  A
C1096      O1102   1.319       .  A
C1097      C1098   1.403       .  A
C1097      H1106   1.084       .  S
C1098      C1101   1.361       .  A
O1099      C1100   1.330       .  A
C1100      C1101   1.392       .  A
C1101      H1107   1.083       .  S
O1102      C1103   1.334       .  A
C1103      C1104   1.398       .  A
C1104      H1108   1.082       .  S
C1109      C1114   1.381       .  A
C1109      C1110   1.404       .  A
C1109      O1115   1.321       .  A
C1110      C1111   1.404       .  A
C1110      H1121   1.083       .  S
C1111      C1120   1.363       .  A
C1111      C1112   1.381       .  A
C1112      C1113   1.400       .  A
C1112      O1118   1.316       .  A
C1113      C1114   1.400       .  A
C1113      H1122   1.084       .  S
C1114      C1117   1.357       .  A
O1115      C1116   1.331       .  A
C1116      C1117   1.389       .  A
C1117      H1123   1.084       .  S
O1118      C1119   1.329       .  A
C1119      C1120   1.391       .  A
C1120      H1124   1.083       .  S
C1125      C1130   1.379       .  A
C1125      C1126   1.405       .  A
C1125      O1131   1.319       .  A
C1126      C1127   1.404       .  A
C1126      H1137   1.084       .  S
C1127      C1136   1.362       .  A
C1127      C1128   1.378       .  A
C1128      C1129   1.402       .  A
C1128      O1134   1.316       .  A
C1129      C1130   1.401       .  A
C1129      H1138   1.084       .  S
C1130      C1133   1.359       .  A
O1131      C1132   1.334       .  A
C1132      C1133   1.394       .  A
C1133      H1139   1.083       .  S
O1134      C1135   1.333       .  A
C1135      C1136   1.400       .  A
C1136      H1140   1.082       .  S
C1141      C1146   1.377       .  A
C1141      C1142   1.410       .  A
C1141      O1147   1.326       .  A
C1142      C1143   1.410       .  A
C1142      H1153   1.082       .  S
C1143      C1152   1.367       .  A
C1143      C1144   1.379       .  A
C1144      C1145   1.398       .  A
C1144      O1150   1.316       .  A
C1145      C1146   1.399       .  A
C1145      H1154   1.083       .  S
C1146      C1149   1.352       .  A
O1147      C1148   1.337       .  A
C1148      C1149   1.396       .  A
C1149      H1155   1.078       .  S
O1150      C1151   1.331       .  A
C1151      C1152   1.400       .  A
C1152      H1156   1.082       .  S
C1157      C1162   1.377       .  A
C1157      C1158   1.409       .  A
C1157      O1163   1.322       .  A
C1158      C1159   1.408       .  A
C1158      H1169   1.083       .  S
C1159      C1168   1.369       .  A
C1159      C1160   1.380       .  A
C1160      C1161   1.399       .  A
C1160      O1166   1.315       .  A
C1161      C1162   1.398       .  A
C1161      H1170   1.083       .  S
C1162      C1165   1.354       .  A
O1163      C1164   1.338       .  A
C1164      C1165   1.396       .  A
C1165      H1171   1.080       .  S
O1166      C1167   1.329       .  A
C1167      C1168   1.395       .  A
C1168      H1172   1.082       .  S
C1173      C1178   1.377   1_565  A
C1173      C1174   1.406       .  A
C1173      O1179   1.320       .  A
C1174      C1175   1.406       .  A
C1174      H1185   1.082       .  S
C1175      C1184   1.364       .  A
C1175      C1176   1.377   1_565  A
C1176      C1177   1.406       .  A
C1176      O1182   1.320       .  A
C1177      C1178   1.405       .  A
C1177      H1186   1.083       .  S
C1178      C1181   1.363       .  A
O1179      C1180   1.336   1_565  A
C1180      C1181   1.399       .  A
C1181      H1187   1.081       .  S
O1182      C1183   1.335       .  A
C1183      C1184   1.400   1_545  A
C1184      H1188   1.081       .  S
C1189      C1194   1.378   1_565  A
C1189      C1190   1.400       .  A
C1189      O1195   1.318       .  A
C1190      C1191   1.401       .  A
C1190      H1201   1.083       .  S
C1191      C1200   1.355       .  A
C1191      C1192   1.377   1_565  A
C1192      C1193   1.410       .  A
C1192      O1198   1.326       .  A
C1193      C1194   1.410       .  A
C1193      H1202   1.083       .  S
C1194      C1197   1.366       .  A
O1195      C1196   1.332       .  A
C1196      C1197   1.402   1_565  A
C1197      H1203   1.081       .  S
O1198      C1199   1.337   1_545  A
C1199      C1200   1.396       .  A
C1200      H1204   1.079       .  S
C1205      C1210   1.381       .  A
C1205      C1206   1.403       .  A
C1205      O1211   1.317       .  A
C1206      C1207   1.402       .  A
C1206      H1217   1.082       .  S
C1207      C1216   1.362       .  A
C1207      C1208   1.381       .  A
C1208      C1209   1.402       .  A
C1208      O1214   1.317       .  A
C1209      C1210   1.401       .  A
C1209      H1218   1.082       .  S
C1210      C1213   1.361       .  A
O1211      C1212   1.330       .  A
C1212      C1213   1.389       .  A
C1213      H1219   1.082       .  S
O1214      C1215   1.329       .  A
C1215      C1216   1.391       .  A
C1216      H1220   1.083       .  S
C1221      C1226   1.381       .  A
C1221      C1222   1.399       .  A
C1221      O1227   1.315   1_554  A
C1222      C1223   1.398       .  A
C1222      H1233   1.084       .  S
C1223      C1232   1.357       .  A
C1223      C1224   1.381       .  A
C1224      C1225   1.407       .  A
C1224      O1230   1.322       .  A
C1225      C1226   1.407       .  A
C1225      H1234   1.083       .  S
C1226      C1229   1.367   1_554  A
O1227      C1228   1.328       .  A
C1228      C1229   1.393       .  A
C1229      H1235   1.083       .  S
O1230      C1231   1.332       .  A
C1231      C1232   1.388       .  A
C1232      H1236   1.083       .  S
C1237      C1242   1.379       .  A
C1237      C1238   1.406       .  A
C1237      O1243   1.322       .  A
C1238      C1239   1.406       .  A
C1238      H1249   1.083       .  S
C1239      C1248   1.366       .  A
C1239      C1240   1.380       .  A
C1240      C1241   1.403       .  A
C1240      O1246   1.318       .  A
C1241      C1242   1.402       .  A
C1241      H1250   1.083       .  S
C1242      C1245   1.358       .  A
O1243      C1244   1.335       .  A
C1244      C1245   1.397       .  A
C1245      H1251   1.083       .  S
O1246      C1247   1.331       .  A
C1247      C1248   1.393       .  A
C1248      H1252   1.082       .  S
C1253      C1258   1.381       .  A
C1253      C1254   1.405       .  A
C1253      O1259   1.319       .  A
C1254      C1255   1.403       .  A
C1254      H1265   1.084       .  S
C1255      C1264   1.365       .  A
C1255      C1256   1.381       .  A
C1256      C1257   1.401       .  A
C1256      O1262   1.315       .  A
C1257      C1258   1.399       .  A
C1257      H1266   1.084       .  S
C1258      C1261   1.360       .  A
O1259      C1260   1.331       .  A
C1260      C1261   1.389       .  A
C1261      H1267   1.083       .  S
O1262      C1263   1.329       .  A
C1263      C1264   1.392       .  A
C1264      H1268   1.083       .  S
C1269      C1274   1.380       .  A
C1269      C1270   1.410   1_556  A
C1269      O1275   1.324       .  A
C1270      C1271   1.409       .  A
C1270      H1281   1.083       .  S
C1271      C1280   1.370       .  A
C1271      C1272   1.381       .  A
C1272      C1273   1.398       .  A
C1272      O1278   1.314       .  A
C1273      C1274   1.397   1_554  A
C1273      H1282   1.082       .  S
C1274      C1277   1.356       .  A
O1275      C1276   1.334       .  A
C1276      C1277   1.388       .  A
C1277      H1283   1.082       .  S
O1278      C1279   1.327       .  A
C1279      C1280   1.395       .  A
C1280      H1284   1.083       .  S
C1285      C1290   1.380       .  A
C1285      C1286   1.402       .  A
C1285      O1291   1.320       .  A
C1286      C1287   1.402       .  A
C1286      H1297   1.084       .  S
C1287      C1296   1.356       .  A
C1287      C1288   1.379       .  A
C1288      C1289   1.409       .  A
C1288      O1294   1.326       .  A
C1289      C1290   1.410       .  A
C1289      H1298   1.083       .  S
C1290      C1293   1.368       .  A
O1291      C1292   1.331       .  A
C1292      C1293   1.395       .  A
C1293      H1299   1.082       .  S
O1294      C1295   1.336       .  A
C1295      C1296   1.396       .  A
C1296      H1300   1.083       .  S
C1301      C1306   1.380       .  A
C1301      C1302   1.407       .  A
C1301      O1307   1.323       .  A
C1302      C1303   1.407       .  A
C1302      H1313   1.082       .  S
C1303      C1312   1.366       .  A
C1303      C1304   1.381       .  A
C1304      C1305   1.402       .  A
C1304      O1310   1.318       .  A
C1305      C1306   1.401       .  A
C1305      H1314   1.082       .  S
C1306      C1309   1.359       .  A
O1307      C1308   1.333       .  A
C1308      C1309   1.390       .  A
C1309      H1315   1.082       .  S
O1310      C1311   1.330       .  A
C1311      C1312   1.393       .  A
C1312      H1316   1.082       .  S
C1317      C1322   1.381       .  A
C1317      C1318   1.406       .  A
C1317      O1323   1.321       .  A
C1318      C1319   1.405       .  A
C1318      H1329   1.082       .  S
C1319      C1328   1.365       .  A
C1319      C1320   1.381       .  A
C1320      C1321   1.397       .  A
C1320      O1326   1.313       .  A
C1321      C1322   1.396       .  A
C1321      H1330   1.083       .  S
C1322      C1325   1.355       .  A
O1323      C1324   1.332       .  A
C1324      C1325   1.388       .  A
C1325      H1331   1.083       .  S
O1326      C1327   1.327       .  A
C1327      C1328   1.392       .  A
C1328      H1332   1.082       .  S
C1333      C1338   1.381       .  A
C1333      C1334   1.400       .  A
C1333      O1339   1.316   1_554  A
C1334      C1335   1.399       .  A
C1334      H1345   1.082       .  S
C1335      C1344   1.357       .  A
C1335      C1336   1.380       .  A
C1336      C1337   1.408       .  A
C1336      O1342   1.323       .  A
C1337      C1338   1.407       .  A
C1337      H1346   1.082       .  S
C1338      C1341   1.367   1_554  A
O1339      C1340   1.329       .  A
C1340      C1341   1.393       .  A
C1341      H1347   1.082       .  S
O1342      C1343   1.333       .  A
C1343      C1344   1.389       .  A
C1344      H1348   1.082       .  S
C1349      C1354   1.381       .  A
C1349      C1350   1.400       .  A
C1349      O1355   1.316       .  A
C1350      C1351   1.399       .  A
C1350      H1361   1.082       .  S
C1351      C1360   1.358       .  A
C1351      C1352   1.381       .  A
C1352      C1353   1.404       .  A
C1352      O1358   1.319       .  A
C1353      C1354   1.404       .  A
C1353      H1362   1.082       .  S
C1354      C1357   1.364       .  A
O1355      C1356   1.329       .  A
C1356      C1357   1.391       .  A
C1357      H1363   1.082       .  S
O1358      C1359   1.331       .  A
C1359      C1360   1.389       .  A
C1360      H1364   1.083       .  S
C1365      C1370   1.381       .  A
C1365      C1366   1.405       .  A
C1365      O1371   1.322   1_554  A
C1366      C1367   1.405       .  A
C1366      H1377   1.083       .  S
C1367      C1376   1.364       .  A
C1367      C1368   1.381       .  A
C1368      C1369   1.400       .  A
C1368      O1374   1.317       .  A
C1369      C1370   1.400       .  A
C1369      H1378   1.084       .  S
C1370      C1373   1.358   1_554  A
O1371      C1372   1.332       .  A
C1372      C1373   1.390       .  A
C1373      H1379   1.084       .  S
O1374      C1375   1.329       .  A
C1375      C1376   1.391       .  A
C1376      H1380   1.082       .  S
C1381      C1386   1.377       .  A
C1381      C1382   1.407       .  A
C1381      O1387   1.318       .  A
C1382      C1383   1.405       .  A
C1382      H1393   1.083       .  S
C1383      C1392   1.368       .  A
C1383      C1384   1.380       .  A
C1384      C1385   1.403       .  A
C1384      O1390   1.316       .  A
C1385      C1386   1.401       .  A
C1385      H1394   1.083       .  S
C1386      C1389   1.362       .  A
O1387      C1388   1.337       .  A
C1388      C1389   1.396       .  A
C1389      H1395   1.082       .  S
O1390      C1391   1.330       .  A
C1391      C1392   1.393       .  A
C1392      H1396   1.082       .  S
C1397      C1402   1.381       .  A
C1397      C1398   1.403       .  A
C1397      O1403   1.320       .  A
C1398      C1399   1.403       .  A
C1398      H1409   1.083       .  S
C1399      C1408   1.361       .  A
C1399      C1400   1.381       .  A
C1400      C1401   1.400       .  A
C1400      O1406   1.317       .  A
C1401      C1402   1.400       .  A
C1401      H1410   1.084       .  S
C1402      C1405   1.358       .  A
O1403      C1404   1.331       .  A
C1404      C1405   1.390       .  A
C1405      H1411   1.084       .  S
O1406      C1407   1.329       .  A
C1407      C1408   1.390       .  A
C1408      H1412   1.082       .  S
C1413      C1418   1.378       .  A
C1413      C1414   1.401       .  A
C1413      O1419   1.318       .  A
C1414      C1415   1.401       .  A
C1414      H1425   1.082       .  S
C1415      C1424   1.357       .  A
C1415      C1416   1.378       .  A
C1416      C1417   1.405   1_455  A
C1416      O1422   1.322   1_455  A
C1417      C1418   1.406   1_655  A
C1417      H1426   1.082       .  S
C1418      C1421   1.361       .  A
O1419      C1420   1.333       .  A
C1420      C1421   1.402       .  A
C1421      H1427   1.081   1_455  S
O1422      C1423   1.335   1_655  A
C1423      C1424   1.396       .  A
C1424      H1428   1.082       .  S
C1429      C1434   1.379   1_455  A
C1429      C1430   1.406       .  A
C1429      O1435   1.320       .  A
C1430      C1431   1.406       .  A
C1430      H1441   1.082       .  S
C1431      C1440   1.364       .  A
C1431      C1432   1.375   1_455  A
C1432      C1433   1.403       .  A
C1432      O1438   1.315       .  A
C1433      C1434   1.401       .  A
C1433      H1442   1.082       .  S
C1434      C1437   1.360       .  A
O1435      C1436   1.335       .  A
C1436      C1437   1.395   1_455  A
C1437      H1443   1.082       .  S
O1438      C1439   1.335   1_655  A
C1439      C1440   1.403       .  A
C1440      H1444   1.078       .  S
C1445      C1450   1.378       .  A
C1445      C1446   1.403       .  A
C1445      O1451   1.316       .  A
C1446      C1447   1.402       .  A
C1446      H1457   1.084       .  S
C1447      C1456   1.364       .  A
C1447      C1448   1.380       .  A
C1448      C1449   1.407       .  A
C1448      O1454   1.319       .  A
C1449      C1450   1.404       .  A
C1449      H1458   1.083       .  S
C1450      C1453   1.366       .  A
O1451      C1452   1.334       .  A
C1452      C1453   1.397       .  A
C1453      H1459   1.082       .  S
O1454      C1455   1.332       .  A
C1455      C1456   1.391       .  A
C1456      H1460   1.083       .  S
C1461      C1466   1.379       .  A
C1461      C1462   1.405       .  A
C1461      O1467   1.321       .  A
C1462      C1463   1.406       .  A
C1462      H1473   1.083       .  S
C1463      C1472   1.364       .  A
C1463      C1464   1.381       .  A
C1464      C1465   1.398       .  A
C1464      O1470   1.316       .  A
C1465      C1466   1.398       .  A
C1465      H1474   1.084       .  S
C1466      C1469   1.353       .  A
O1467      C1468   1.334       .  A
C1468      C1469   1.395       .  A
C1469      H1475   1.084   1_655  S
O1470      C1471   1.328       .  A
C1471      C1472   1.393       .  A
C1472      H1476   1.082       .  S
