geometry optimzed in LAMMPS
_audit_creation_date              2020-11-30 
_audit_creation_method            'lammps2cif' 
_symmetry_space_group_name_H-M    'P1' 
_symmetry_Int_Tables_number       1 
_symmetry_cell_setting            triclinic 
loop_ 
_symmetry_equiv_pos_as_xyz 
  x,y,z 
_cell_length_a                    34.66219393 
_cell_length_b                    34.56608022112387 
_cell_length_c                    34.303638113422345 
_cell_angle_alpha                 90.70310595651414 
_cell_angle_beta                  88.39518762082203 
_cell_angle_gamma                 91.59410345834934 
loop_ 
_atom_site_label 
_atom_site_type_symbol 
_atom_site_fract_x 
_atom_site_fract_y 
_atom_site_fract_z 
_atom_site_charge 
N1          N  0.98580402  0.45444025  0.04971843    -0.35600
N2          N  0.99087618  0.45382545  0.96325024    -0.56200
N3          N  0.99609455  0.53698100  0.96425843    -0.35600
N4          N  0.99563907  0.53774734  0.05036877    -0.56200
C5          C  0.99015204  0.41623163  0.04231457     0.28000
C6          C  0.99157876  0.46073931  0.08830151     0.28000
C7          C  0.00417932  0.52975221  0.92598893     0.28000
C8          C  0.00773169  0.57387823  0.97192742     0.28000
C9          C  0.98186854  0.41609775  0.96976060     0.36600
C10         C  0.98595509  0.45982565  0.92472581     0.36600
C11         C  0.98831741  0.53271225  0.08899864     0.36600
C12         C  0.99392931  0.57615855  0.04389822     0.36600
C13         C  0.99811773  0.39785661  0.07682955    -0.20900
C14         C  0.99875186  0.42580970  0.10577979    -0.20900
C15         C  0.02136828  0.56246105  0.90925315    -0.20900
C16         C  0.02342583  0.59034041  0.93815642    -0.20900
C17         C  0.97141727  0.39800795  0.93514908    -0.21900
C18         C  0.97381263  0.42570859  0.90671715    -0.21900
C19         C  0.98266777  0.56819799  0.10720584    -0.21900
C20         C  0.98593558  0.59565931  0.07862447    -0.21900
C21         C  0.98527484  0.39698211  0.00582574    -0.17300
C22         C  0.98922725  0.49684575  0.10846647    -0.17300
C23         C  0.00169256  0.59421084  0.00759249    -0.17300
C24         C  0.99452986  0.49517046  0.90530859    -0.17300
H25         H  0.00269958  0.36734060  0.08088926     0.15600
H26         H  0.00389922  0.42086584  0.13626129     0.15600
H27         H  0.03097058  0.56606207  0.87919082     0.15600
H28         H  0.03480542  0.61960425  0.93461183     0.15600
H29         H  0.96310742  0.36788202  0.93078746     0.13900
H30         H  0.96766783  0.42110068  0.87623035     0.13900
H31         H  0.97706482  0.57382889  0.13791323     0.13900
H32         H  0.98335435  0.62654567  0.08305242     0.13900
H33         H  0.97575675  0.47450672  0.02992170     0.27200
H34         H  0.97898904  0.51948168  0.98303724     0.27200
N35         N  0.01394616  0.46401287  0.54865003    -0.35600
N36         N  0.00073718  0.54634264  0.55039137    -0.56200
N37         N  0.00053252  0.54629309  0.46452752    -0.35600
N38         N  0.00960037  0.46390377  0.46294965    -0.56200
C39         C  0.00500910  0.46931897  0.58709686     0.28000
C40         C  0.01001060  0.42564540  0.54071650     0.28000
C41         C  0.98787370  0.58212871  0.47321887     0.28000
C42         C  0.99135402  0.53814928  0.42702869     0.28000
C43         C  0.00776310  0.54128346  0.58866331     0.36600
C44         C  0.00269148  0.58494220  0.54412939     0.36600
C45         C  0.02163114  0.42760252  0.46852981     0.36600
C46         C  0.01357799  0.47060516  0.42420875     0.36600
C47         C  0.99610786  0.43376783  0.60386299    -0.20900
C48         C  0.99889486  0.40633018  0.57460270    -0.20900
C49         C  0.97040617  0.59694960  0.44091093    -0.20900
C50         C  0.97260265  0.56921475  0.41179522    -0.20900
C51         C  0.01354366  0.57682811  0.60691368    -0.21900
C52         C  0.01095527  0.60440338  0.57867312    -0.21900
C53         C  0.03355217  0.41129511  0.43319424    -0.21900
C54         C  0.02839163  0.43851841  0.40512738    -0.21900
C55         C  0.00642000  0.50513603  0.60777640    -0.17300
C56         C  0.01770170  0.40737340  0.50413096    -0.17300
C57         C  0.00144359  0.50431891  0.40564688    -0.17300
C58         C  0.99443494  0.60298270  0.50842273    -0.17300
H59         H  0.98836296  0.42802363  0.63405048     0.15600
H60         H  0.99355187  0.37555411  0.57805689     0.15600
H61         H  0.95785257  0.62510472  0.43841467     0.15600
H62         H  0.96201916  0.57183063  0.38258561     0.15600
H63         H  0.01889804  0.58240519  0.63741772     0.13900
H64         H  0.01417087  0.63531496  0.58337230     0.13900
H65         H  0.04404504  0.38242223  0.42805920     0.13900
H66         H  0.03432223  0.43488223  0.37417494     0.13900
H67         H  0.02566121  0.48471486  0.52970211     0.27200
H68         H  0.01854328  0.53057030  0.48171672     0.27200
O69         O  0.98319923  0.02307429  0.91568815    -0.77500
C70         C  0.89279281  0.99023572  0.99904626     0.83600
O71         O  0.02095999  0.08973449  0.02809711    -0.78600
O72         O  0.97733837  0.96923407  0.08859682    -0.80100
O73         O  0.02743197  0.90563540  0.97415466    -0.79900
O74         O  0.02898567  0.97883835  0.91115194    -0.78500
Zn75       Zn  0.96853370  0.02879976  0.97104410     1.55700
O76         O  0.97885308  0.90346779  0.01768330    -0.79900
Cd77       Cd  0.03785250  0.96496020  0.96779410     1.59700
Cd78       Cd  0.03427862  0.03167656  0.03352990     1.59600
O79         O  0.09554322  0.97732790  0.97947699    -0.79900
O80         O  0.00184507  0.99679700  0.00039259    -1.90400
Cd81       Cd  0.96767993  0.96044558  0.03094758     1.59900
O82         O  0.09325597  0.02479514  0.02374027    -0.79800
O83         O  0.90963337  0.96838706  0.02241314    -0.78500
C84         C  0.99586545  0.10549764  0.00744888     0.84000
C85         C  0.00662441  0.00263567  0.89582866     0.83700
O86         O  0.91188141  0.01375010  0.97713388    -0.77500
C87         C  0.00298546  0.88640760  0.99518492     0.84500
O88         O  0.97443482  0.08528669  0.98504372    -0.77500
C89         C  0.11245520  0.00166517  0.00197537     0.84600
C90         C  0.99978245  0.99235471  0.10682336     0.85000
O91         O  0.02232620  0.01670527  0.08957435    -0.80000
O92         O  0.98706516  0.02488672  0.41426648    -0.77500
C93         C  0.89625198  0.00582397  0.50108067     0.83600
O94         O  0.03345825  0.09831508  0.51878653    -0.78600
O95         O  0.98216096  0.98708451  0.59034619    -0.80100
O96         O  0.02705878  0.91186322  0.48465515    -0.79900
O97         O  0.02865997  0.97671668  0.41383470    -0.78500
Zn98       Zn  0.97389406  0.03795449  0.46930126     1.55700
O99         O  0.97585695  0.91541552  0.52506275    -0.79900
Cd100      Cd  0.03947289  0.96945555  0.47104952     1.59700
Cd101      Cd  0.04103671  0.04078153  0.53065988     1.59600
O102        O  0.09812409  0.98077810  0.47809703    -0.79900
O103        O  0.00571421  0.00602692  0.50066267    -1.90400
Cd104      Cd  0.96991318  0.97417476  0.53407544     1.59900
O105        O  0.09870716  0.02958070  0.52092496    -0.79800
O106        O  0.91252505  0.98479525  0.52560689    -0.78500
C107        C  0.00874513  0.11480970  0.49841315     0.84000
C108        C  0.00780884  0.00021395  0.39622820     0.83700
O109        O  0.91628707  0.02705110  0.47762135    -0.77500
C110        C  0.00021516  0.89574656  0.50539540     0.84500
O111        O  0.98392358  0.09549551  0.47886231    -0.77500
C112        C  0.11634512  0.00531099  0.49923013     0.84600
C113        C  0.00580084  0.01027869  0.60703907     0.85000
O114        O  0.02933703  0.03250163  0.58833128    -0.80000
N115        N  0.54420584  0.99582464  0.04228455    -0.35600
N116        N  0.54601247  0.99565740  0.95621145    -0.56200
N117        N  0.46321363  0.00287419  0.95757187    -0.35600
N118        N  0.46178253  0.00849720  0.04341648    -0.56200
C119        C  0.58278592  0.99766014  0.03464770     0.28000
C120        C  0.53847255  0.00536474  0.08051970     0.28000
C121        C  0.47118194  0.00909087  0.91910137     0.28000
C122        C  0.42632609  0.01332427  0.96494555     0.28000
C123        C  0.58260508  0.98520981  0.96242984     0.36600
C124        C  0.54011368  0.99045698  0.91760124     0.36600
C125        C  0.46645190  0.00469225  0.08227999     0.36600
C126        C  0.42335920  0.00560519  0.03750309     0.36600
C127        C  0.60173427  0.00777208  0.06856601    -0.20900
C128        C  0.57384073  0.01257338  0.09742131    -0.20900
C129        C  0.43892425  0.02365866  0.90201063    -0.20900
C130        C  0.41060706  0.02610524  0.93082721    -0.20900
C131        C  0.60012197  0.97351769  0.92756409    -0.21900
C132        C  0.57316777  0.97667219  0.89922786    -0.21900
C133        C  0.43080518  0.00027395  0.10119511    -0.21900
C134        C  0.40355311  0.00062261  0.07286451    -0.21900
C135        C  0.60159034  0.98914823  0.99834307    -0.17300
C136        C  0.50237519  0.00596962  0.10110189    -0.17300
C137        C  0.40562628  0.00927921  0.00100368    -0.17300
C138        C  0.50587728  0.99968997  0.89848493    -0.17300
H139        H  0.63255152  0.01122200  0.07227202     0.15600
H140        H  0.57906089  0.02043887  0.12749362     0.15600
H141        H  0.43587442  0.03124007  0.87175301     0.15600
H142        H  0.38159388  0.03594519  0.92701796     0.15600
H143        H  0.62942884  0.96406725  0.92296739     0.13900
H144        H  0.57755994  0.96996619  0.86855203     0.13900
H145        H  0.42503513  0.99689526  0.13215558     0.13900
H146        H  0.37263692  0.99777596  0.07782002     0.13900
H147        H  0.52390867  0.98517949  0.02376731     0.27200
H148        H  0.47968228  0.98821940  0.97633738     0.27200
N149        N  0.54674253  0.99076893  0.54179859    -0.35600
N150        N  0.46385971  0.99563435  0.54458045    -0.56200
N151        N  0.46407880  0.99893677  0.45857009    -0.35600
N152        N  0.54705255  0.99887578  0.45580352    -0.56200
C153        C  0.54055226  0.99573932  0.58078723     0.28000
C154        C  0.58462131  0.99861554  0.53401281     0.28000
C155        C  0.42728376  0.00839982  0.46774527     0.28000
C156        C  0.47108442  0.00851438  0.42072824     0.28000
C157        C  0.46905245  0.98738914  0.58254879     0.36600
C158        C  0.42552153  0.99209886  0.53872716     0.36600
C159        C  0.58485843  0.99239887  0.46100670     0.36600
C160        C  0.54109798  0.99506842  0.41701323     0.36600
C161        C  0.57506683  0.00612913  0.59800103    -0.20900
C162        C  0.60282861  0.00792911  0.56857579    -0.20900
C163        C  0.41067614  0.02404346  0.43536881    -0.20900
C164        C  0.43832860  0.02424721  0.40579191    -0.20900
C165        C  0.43382453  0.97882547  0.60095118    -0.21900
C166        C  0.40625504  0.98172870  0.57319720    -0.21900
C167        C  0.60309269  0.98483836  0.42534153    -0.21900
C168        C  0.57535978  0.98622948  0.39755356    -0.21900
C169        C  0.50482502  0.99028825  0.60144769    -0.17300
C170        C  0.60380798  0.99557039  0.49703427    -0.17300
C171        C  0.50563933  0.00176779  0.39881757    -0.17300
C172        C  0.40731079  0.00077243  0.50355534    -0.17300
H173        H  0.57980654  0.01183955  0.62861435     0.15600
H174        H  0.63309526  0.01514547  0.57231091     0.15600
H175        H  0.38148947  0.03398858  0.43316746     0.15600
H176        H  0.43460407  0.03450836  0.37649036     0.15600
H177        H  0.42851016  0.97169967  0.63130342     0.13900
H178        H  0.37545803  0.97735855  0.57803351     0.13900
H179        H  0.63330388  0.97903802  0.41988735     0.13900
H180        H  0.58005973  0.98166617  0.36654102     0.13900
H181        H  0.52727968  0.97909139  0.52212314     0.27200
H182        H  0.48158881  0.98266352  0.47573689     0.27200
C183        C  0.51404686  0.96057969  0.70789398    -0.13300
C184        C  0.50241909  0.99415061  0.72812307     0.17000
C185        C  0.49195850  0.02645683  0.70624748     0.03300
C186        C  0.49315286  0.02466003  0.66526111    -0.11800
C187        C  0.50450735  0.99105441  0.64518501    -0.02900
C188        C  0.51515929  0.95884041  0.66687296     0.02600
C189        C  0.50293543  0.99556701  0.77182396     0.09400
N190        N  0.47901358  0.06096444  0.72525283     0.65800
H191        H  0.48475151  0.04955586  0.64892220     0.18700
N192        N  0.52699746  0.92411706  0.64757295     0.76200
H193        H  0.52286056  0.93572710  0.72403223     0.10200
C194        C  0.48194918  0.96816527  0.79482002     0.03900
C195        C  0.48360779  0.96980817  0.83570658    -0.04800
C196        C  0.50575683  0.99858745  0.85467477    -0.23200
C197        C  0.52695007  0.02589989  0.83177645     0.13100
C198        C  0.52551861  0.02409841  0.79082850    -0.12400
N199        N  0.45769386  0.93927650  0.77710157     0.64800
H200        H  0.46706163  0.94872960  0.85286163     0.12700
N201        N  0.54947567  0.05606029  0.84973223     0.61500
H202        H  0.54220408  0.04512632  0.77375462     0.08800
O203        O  0.50329219  0.89598320  0.64426947    -0.40000
O204        O  0.56229261  0.91939443  0.63944537    -0.39200
O205        O  0.49759555  0.09250294  0.72021373    -0.39200
O206        O  0.44635501  0.06101816  0.74245323    -0.36900
O207        O  0.53392144  0.08752185  0.85913794    -0.37800
O208        O  0.58577198  0.05403287  0.84957778    -0.33900
O209        O  0.46703239  0.90426327  0.77746431    -0.35400
O210        O  0.42428673  0.94780031  0.76699219    -0.39600
C211        C  0.49842729  0.04066633  0.20766908    -0.13300
C212        C  0.50480016  0.00624088  0.22785813     0.17000
C213        C  0.50958754  0.97172742  0.20568566     0.03300
C214        C  0.50808720  0.97226869  0.16478065    -0.11800
C215        C  0.50246535  0.00671092  0.14485156    -0.02900
C216        C  0.49766385  0.04117529  0.16663577     0.02600
C217        C  0.50479619  0.00625641  0.27180357     0.09400
N218        N  0.51719509  0.93597446  0.22414733     0.65800
H219        H  0.51207889  0.94564765  0.14832429     0.18700
N220        N  0.49264770  0.07700666  0.14735910     0.76200
H221        H  0.49383284  0.06734507  0.22379768     0.10200
C222        C  0.52708007  0.03334899  0.29362986     0.03900
C223        C  0.52652915  0.03187005  0.33467400    -0.04800
C224        C  0.50476328  0.00329478  0.35496631    -0.23200
C225        C  0.48186587  0.97683944  0.33330162     0.13100
C226        C  0.48160819  0.97889640  0.29240474    -0.12400
N227        N  0.55147134  0.06177141  0.27461667     0.64800
H228        H  0.54391644  0.05270759  0.35083948     0.12700
N229        N  0.45941954  0.94699872  0.35241341     0.61500
H230        H  0.46334696  0.95857404  0.27660827     0.08800
O231        O  0.45943673  0.09081416  0.14561804    -0.40000
O232        O  0.52182606  0.09703094  0.13629001    -0.39200
O233        O  0.49437148  0.90722693  0.21996125    -0.39200
O234        O  0.54914153  0.93158596  0.24005311    -0.36900
O235        O  0.42306225  0.94835976  0.35343259    -0.37800
O236        O  0.47539397  0.91637700  0.36221579    -0.33900
O237        O  0.54579542  0.09728541  0.28061558    -0.35400
O238        O  0.58178249  0.05155674  0.25653289    -0.39600
C239        C  0.22191101  0.99407264  0.46885572    -0.13300
C240        C  0.24016275  0.00054578  0.50450179     0.17000
C241        C  0.21748705  0.00966970  0.53797268     0.03300
C242        C  0.17739461  0.01233045  0.53524593    -0.11800
C243        C  0.15904583  0.00501695  0.49981028    -0.02900
C244        C  0.18173028  0.99612504  0.46625528     0.02600
C245        C  0.28300346  0.99975268  0.50567478     0.09400
N246        N  0.23456498  0.01452270  0.57526437     0.65800
H247        H  0.16033013  0.01864325  0.56139970     0.18700
N248        N  0.16465530  0.99118089  0.42899018     0.76200
H249        H  0.23907754  0.98829793  0.44264852     0.10200
C250        C  0.30343222  0.96761245  0.49115396     0.03900
C251        C  0.34386536  0.96882818  0.49006775    -0.04800
C252        C  0.36446990  0.00133595  0.50395389    -0.23200
C253        C  0.34428229  0.03339265  0.51861109     0.13100
C254        C  0.30382410  0.03247637  0.51926281    -0.12400
N255        N  0.28346386  0.93310763  0.47858488     0.64800
H256        H  0.35933883  0.94394681  0.47912630     0.12700
N257        N  0.36461605  0.06729278  0.53204927     0.61500
H258        H  0.28861268  0.05770975  0.52968818     0.08800
O259        O  0.16690597  0.95919297  0.41106365    -0.40000
O260        O  0.15255050  0.02023517  0.41159628    -0.39200
O261        O  0.23046193  0.04566830  0.59431826    -0.39200
O262        O  0.24950733  0.98606392  0.59121672    -0.36900
O263        O  0.37584951  0.09289501  0.50807099    -0.37800
O264        O  0.36771822  0.07357555  0.56814895    -0.33900
O265        O  0.28865239  0.92046470  0.44422450    -0.35400
O266        O  0.26376325  0.91316858  0.50289319    -0.39600
C267        C  0.79227831  0.02003474  0.47050955    -0.13300
C268        C  0.77110750  0.00344337  0.50190447     0.17000
C269        C  0.79140374  0.98728436  0.53257483     0.03300
C270        C  0.83187114  0.98810473  0.53141240    -0.11800
C271        C  0.85319977  0.00525771  0.50032577    -0.02900
C272        C  0.83278161  0.02126759  0.46950145     0.02600
C273        C  0.72803438  0.00183701  0.50120572     0.09400
N274        N  0.77139166  0.97097464  0.56576191     0.65800
H275        H  0.84663312  0.97582243  0.55558176     0.18700
N276        N  0.85253961  0.03788854  0.43635251     0.76200
H277        H  0.77724872  0.03151741  0.44610481     0.10200
C278        C  0.70681978  0.03517333  0.49363717     0.03900
C279        C  0.66656802  0.03228547  0.49074011    -0.04800
C280        C  0.64674955  0.99682697  0.49623516    -0.23200
C281        C  0.66762473  0.96358457  0.50395312     0.13100
C282        C  0.70795319  0.96618961  0.50607156    -0.12400
N283        N  0.72557273  0.07244538  0.49059414     0.64800
H284        H  0.65049363  0.05810207  0.48562729     0.12700
N285        N  0.64805211  0.92708885  0.50984099     0.61500
H286        H  0.72366998  0.94011756  0.51093504     0.08800
O287        O  0.85331135  0.07410753  0.43205750    -0.40000
O288        O  0.86405183  0.01628780  0.40873067    -0.39200
O289        O  0.77424154  0.93545220  0.57290018    -0.39200
O290        O  0.75598275  0.99297395  0.59097360    -0.36900
O291        O  0.63243763  0.90963305  0.48159882    -0.37800
O292        O  0.64370210  0.91378951  0.54381728    -0.33900
O293        O  0.72285638  0.09186489  0.45992675    -0.35400
O294        O  0.74119461  0.08771713  0.52002441    -0.39600
C295        C  0.30121191  0.97649667  0.98712118    -0.13300
C296        C  0.28094181  0.00982955  0.99806085     0.17000
C297        C  0.30228756  0.04309442  0.01048433     0.03300
C298        C  0.34272215  0.04223273  0.01199260    -0.11800
C299        C  0.36263072  0.00913503  0.00031387    -0.02900
C300        C  0.34161310  0.97617525  0.98755513     0.02600
C301        C  0.23767161  0.00857430  0.99836201     0.09400
N302        N  0.28349252  0.07833810  0.02050015     0.65800
H303        H  0.35880782  0.06783950  0.02141131     0.18700
N304        N  0.36105597  0.94198357  0.97539098     0.76200
H305        H  0.28561214  0.95028187  0.97866514     0.10200
C306        C  0.21682380  0.99305538  0.96664788     0.03900
C307        C  0.17636204  0.99016651  0.96900294    -0.04800
C308        C  0.15552422  0.00337088  0.00205789    -0.23200
C309        C  0.17634684  0.01872450  0.03386905     0.13100
C310        C  0.21686958  0.02088109  0.03183899    -0.12400
N311        N  0.23617001  0.98126341  0.93124583     0.64800
H312        H  0.16109214  0.97866703  0.94408217     0.12700
N313        N  0.15697557  0.03077708  0.06912343     0.61500
H314        H  0.23219505  0.03141312  0.05710783     0.08800
O315        O  0.36900516  0.91694100  0.00016132    -0.40000
O316        O  0.36695523  0.93508633  0.93954434    -0.39200
O317        O  0.28915593  0.09452204  0.05310314    -0.39200
O318        O  0.26455764  0.09540679  0.99528840    -0.36900
O319        O  0.14368867  0.00572953  0.09274910    -0.37800
O320        O  0.15808994  0.06600544  0.07923707    -0.33900
O321        O  0.23103003  0.94728099  0.91814814    -0.35400
O322        O  0.25475861  0.00593759  0.91081624    -0.39600
C323        C  0.70472423  0.95722670  0.01049789    -0.13300
C324        C  0.72575879  0.99099718  0.99990150     0.17000
C325        C  0.70578688  0.02346226  0.98765887     0.03300
C326        C  0.66545657  0.02189176  0.98643486    -0.11800
C327        C  0.64447178  0.98832882  0.99732614    -0.02900
C328        C  0.66430841  0.95562411  0.00909349     0.02600
C329        C  0.76856990  0.99134099  0.00006868     0.09400
N330        N  0.72605999  0.05870781  0.97785979     0.65800
H331        H  0.65031331  0.04727702  0.97776413     0.18700
N332        N  0.64378397  0.92049123  0.01886124     0.76200
H333        H  0.71981297  0.93182002  0.01919239     0.10200
C334        C  0.78846563  0.98498977  0.03456329     0.03900
C335        C  0.82883618  0.98351324  0.03339308    -0.04800
C336        C  0.85006425  0.98906915  0.99832703    -0.23200
C337        C  0.83007531  0.99520366  0.96371744     0.13100
C338        C  0.78966138  0.99635800  0.96489456    -0.12400
N339        N  0.76811000  0.98184667  0.07125536     0.64800
H340        H  0.84373167  0.97939407  0.06032960     0.12700
N341        N  0.85024446  0.99821768  0.92689321     0.61500
H342        H  0.77457879  0.00025628  0.93803183     0.08800
O343        O  0.63288731  0.89773566  0.99204885    -0.40000
O344        O  0.64182180  0.90947129  0.05380518    -0.39200
O345        O  0.72817714  0.06952409  0.94285233    -0.39200
O346        O  0.73658289  0.08168727  0.00462990    -0.36900
O347        O  0.86389272  0.96832205  0.91085904    -0.37800
O348        O  0.84957811  0.02924981  0.90796359    -0.33900
O349        O  0.76797656  0.95048026  0.08969028    -0.35400
O350        O  0.75473775  0.01173983  0.08754220    -0.39600
C351        C  0.03652303  0.02180082  0.71117241    -0.13300
C352        C  0.00250200  0.00975992  0.73070423     0.17000
C353        C  0.96950289  0.99913445  0.71006214     0.03300
C354        C  0.97115929  0.99978930  0.66961287    -0.11800
C355        C  0.00536045  0.01131838  0.64958658    -0.02900
C356        C  0.03826574  0.02281793  0.67066242     0.02600
C357        C  0.00245194  0.00756613  0.77282770     0.09400
N358        N  0.93416257  0.98806856  0.72986371     0.65800
H359        H  0.94548004  0.99149365  0.65387080     0.18700
N360        N  0.07392095  0.03411134  0.65153531     0.76200
H361        H  0.06191465  0.02988169  0.72748692     0.10200
C362        C  0.00995960  0.97255015  0.79101128     0.03900
C363        C  0.01208893  0.97172945  0.83134079    -0.04800
C364        C  0.00663700  0.00549748  0.85357068    -0.23200
C365        C  0.99878578  0.04059822  0.83513891     0.13100
C366        C  0.99670619  0.04129600  0.79473448    -0.12400
N367        N  0.01573228  0.93784095  0.76878760     0.64800
H368        H  0.01748225  0.94452465  0.84533055     0.12700
N369        N  0.99433326  0.07586508  0.85685117     0.61500
H370        H  0.99131537  0.06828020  0.78031791     0.08800
O371        O  0.09982291  0.00953314  0.64605368    -0.40000
O372        O  0.08213298  0.06957435  0.64684322    -0.39200
O373        O  0.90989093  0.01351332  0.73860538    -0.39200
O374        O  0.92416492  0.95275423  0.73176701    -0.36900
O375        O  0.02373351  0.09377785  0.86947318    -0.37800
O376        O  0.96202985  0.09185598  0.85848501    -0.33900
O377        O  0.04893984  0.93062874  0.75505739    -0.35400
O378        O  0.98961631  0.91167616  0.76863757    -0.39600
C379        C  0.98449570  0.96208109  0.21172650    -0.13300
C380        C  0.99974407  0.99483259  0.23060202     0.17000
C381        C  0.01468781  0.02639911  0.20930266     0.03300
C382        C  0.01405638  0.02499626  0.16894621    -0.11800
C383        C  0.99942576  0.99200819  0.14945138    -0.02900
C384        C  0.98454353  0.96014975  0.17115384     0.02600
C385        C  0.00105626  0.99534996  0.27275512     0.09400
N386        N  0.03166862  0.05945857  0.22833119     0.65800
H387        H  0.02543932  0.04980326  0.15289145     0.18700
N388        N  0.97108848  0.92518496  0.15266738     0.76200
H389        H  0.97345806  0.93764820  0.22858196     0.10200
C390        C  0.97283969  0.01430538  0.29517859     0.03900
C391        C  0.97582676  0.01586899  0.33542556    -0.04800
C392        C  0.00661784  0.99839767  0.35361292    -0.23200
C393        C  0.03487017  0.97913625  0.33066732     0.13100
C394        C  0.03181867  0.97791246  0.29034213    -0.12400
N395        N  0.94078360  0.03148126  0.27739801     0.64800
H396        H  0.95357079  0.03032842  0.35243868     0.12700
N397        N  0.06713600  0.96143523  0.34755601     0.61500
H398        H  0.05367198  0.96360963  0.27260781     0.08800
O399        O  0.93611312  0.91448008  0.15668277    -0.40000
O400        O  0.99511686  0.90218924  0.13767066    -0.39200
O401        O  0.06653524  0.05890146  0.23788962    -0.39200
O402        O  0.01436922  0.09110440  0.22905711    -0.36900
O403        O  0.06516382  0.92588996  0.35558044    -0.37800
O404        O  0.09947235  0.97912598  0.34740478    -0.33900
O405        O  0.91026521  0.01155704  0.27222478    -0.35400
O406        O  0.94063189  0.06764813  0.27292426    -0.39600
C407        C  0.96037389  0.79215564  0.50711745    -0.13300
C408        C  0.99403993  0.77128416  0.51229998     0.17000
C409        C  0.02965465  0.79195954  0.51562177     0.03300
C410        C  0.03116804  0.83232767  0.51205935    -0.11800
C411        C  0.99751991  0.85303335  0.50712097    -0.02900
C412        C  0.96176281  0.83267468  0.50512064     0.02600
C413        C  0.99230832  0.72806911  0.51077618     0.09400
N414        N  0.06433495  0.77248073  0.52394605     0.65800
H415        H  0.05865585  0.84774785  0.51463305     0.18700
N416        N  0.92691203  0.85260622  0.49891364     0.76200
H417        H  0.93297882  0.77692950  0.50335498     0.10200
C418        C  0.96511446  0.70594024  0.53324241     0.03900
C419        C  0.96516269  0.66535435  0.53104247    -0.04800
C420        C  0.99268743  0.64613166  0.50769317    -0.23200
C421        C  0.01884889  0.66819742  0.48420810     0.13100
C422        C  0.01794480  0.70863900  0.48538047    -0.12400
N423        N  0.93837663  0.72410299  0.55963173     0.64800
H424        H  0.94453958  0.64868642  0.54877992     0.12700
N425        N  0.04729393  0.64991666  0.45985296     0.61500
H426        H  0.03805382  0.72501203  0.46681653     0.08800
O427        O  0.90175243  0.85506245  0.52606902    -0.40000
O428        O  0.91915626  0.86332959  0.46505502    -0.39200
O429        O  0.09387485  0.77681357  0.50191434    -0.39200
O430        O  0.06691181  0.75491730  0.55576820    -0.36900
O431        O  0.07619178  0.63524158  0.47493474    -0.37800
O432        O  0.04621492  0.65292471  0.42327581    -0.33900
O433        O  0.90257832  0.72032556  0.55432979    -0.35400
O434        O  0.95012702  0.73895298  0.59107352    -0.39600
C435        C  0.04324571  0.30194817  0.51849030    -0.13300
C436        C  0.01474670  0.28246181  0.49666285     0.17000
C437        C  0.98699331  0.30448365  0.47807052     0.03300
C438        C  0.98822857  0.34486310  0.48156980    -0.11800
C439        C  0.01750126  0.36424776  0.50211115    -0.02900
C440        C  0.04533204  0.34249471  0.52063505     0.02600
C441        C  0.01322213  0.23927760  0.49527941     0.09400
N442        N  0.95798940  0.28640733  0.45461760     0.65800
H443        H  0.96663643  0.36138298  0.46735301     0.18700
N444        N  0.07610689  0.36121150  0.54117954     0.76200
H445        H  0.06419024  0.28562080  0.53380712     0.10200
C446        C  0.04659711  0.21766804  0.48702878     0.03900
C447        C  0.04459886  0.17718171  0.48892298    -0.04800
C448        C  0.00951901  0.15745959  0.49724834    -0.23200
C449        C  0.97606793  0.17878621  0.50480456     0.13100
C450        C  0.97827398  0.21931319  0.50443325    -0.12400
N451        N  0.08238374  0.23628455  0.47535076     0.64800
H452        H  0.07039601  0.16094814  0.48263048     0.12700
N453        N  0.94016896  0.15973445  0.51507841     0.61500
H454        H  0.95265083  0.23524212  0.51218680     0.08800
O455        O  0.10296235  0.37874917  0.52242822    -0.40000
O456        O  0.07918126  0.35589088  0.57727747    -0.39200
O457        O  0.92275355  0.29184066  0.46250301    -0.39200
O458        O  0.96758311  0.26928069  0.42327577    -0.36900
O459        O  0.93283736  0.15083885  0.55012644    -0.37800
O460        O  0.91378279  0.15704728  0.49051101    -0.33900
O461        O  0.11234419  0.23105413  0.49447324    -0.35400
O462        O  0.08521478  0.25344348  0.44309364    -0.39600
C463        C  0.03535340  0.50739339  0.71471103    -0.13300
C464        C  0.99984808  0.49963527  0.73442120     0.17000
C465        C  0.96625820  0.49537965  0.71199341     0.03300
C466        C  0.96884547  0.49822594  0.67111303    -0.11800
C467        C  0.00452966  0.50455498  0.65155055    -0.02900
C468        C  0.03795054  0.50945726  0.67378178     0.02600
C469        C  0.99821981  0.49749943  0.77822255     0.09400
N470        N  0.92945661  0.48668678  0.73012347     0.65800
H471        H  0.94292731  0.49439749  0.65438113     0.18700
N472        N  0.07479828  0.51637293  0.65509185     0.76200
H473        H  0.06133086  0.51190104  0.73118355     0.10200
C474        C  0.02316243  0.47383779  0.79886935     0.03900
C475        C  0.02169864  0.47357566  0.83991395    -0.02800
C476        C  0.99509351  0.49585006  0.86139856    -0.23200
C477        C  0.97016404  0.51946427  0.84085794     0.13100
C478        C  0.97230134  0.52052507  0.79986982    -0.12400
N479        N  0.04944534  0.44902577  0.77858094     0.64800
H480        H  0.04119582  0.45545097  0.85516558     0.12700
N481        N  0.94208129  0.54214163  0.86128268     0.61500
H482        H  0.95346674  0.53951622  0.78487066     0.08800
O483        O  0.09422537  0.48816923  0.64282219    -0.40000
O484        O  0.09026244  0.54983939  0.65604098    -0.39200
O485        O  0.90290850  0.51085352  0.72880188    -0.39200
O486        O  0.92159484  0.45275530  0.74158554    -0.36900
O487        O  0.91198355  0.52589222  0.87564680    -0.37800
O488        O  0.94464311  0.57860370  0.86019873    -0.33900
O489        O  0.08535370  0.45461181  0.78181616    -0.35400
O490        O  0.03690414  0.41830498  0.76255716    -0.39600
C491        C  0.02518100  0.49705708  0.21280871    -0.13300
C492        C  0.99083411  0.50105317  0.23529567     0.17000
C493        C  0.95567686  0.50446525  0.21540124     0.03300
C494        C  0.95554037  0.50134346  0.17432674    -0.11800
C495        C  0.98994009  0.49748671  0.15223156    -0.02900
C496        C  0.02502441  0.49620503  0.17182705     0.02600
C497        C  0.99267690  0.50152868  0.27918570     0.09400
N498        N  0.92032554  0.51307490  0.23612983     0.65800
H499        H  0.92862419  0.50372416  0.15933458     0.18700
N500        N  0.06086310  0.49528091  0.15025885     0.76200
H501        H  0.05248211  0.49501922  0.22716949     0.10200
C502        C  0.96841573  0.47735229  0.30312741     0.03900
C503        C  0.97096101  0.47961227  0.34405788    -0.04800
C504        C  0.99854429  0.50387676  0.36198761    -0.23200
C505        C  0.02349486  0.52698225  0.33825328     0.13100
C506        C  0.01984730  0.52628447  0.29747407    -0.12400
N507        N  0.94231166  0.44915616  0.28650217     0.64800
H508        H  0.95217701  0.46122827  0.36208438     0.12700
N509        N  0.05367783  0.55012860  0.35519123     0.61500
H510        H  0.03901064  0.54467688  0.27986279     0.08800
O511        O  0.07808209  0.46381988  0.14556042    -0.40000
O512        O  0.07446676  0.52564276  0.13437674    -0.39200
O513        O  0.91991291  0.53926150  0.26210768    -0.39200
O514        O  0.88875066  0.49793036  0.22537018    -0.36900
O515        O  0.07946832  0.53432114  0.37424890    -0.37800
O516        O  0.05542744  0.58621073  0.34999122    -0.33900
O517        O  0.95394240  0.42665684  0.25967223    -0.35400
O518        O  0.90902092  0.44361911  0.30163330    -0.39600
C519        C  0.02752931  0.78071537  0.97363874    -0.13300
C520        C  0.00097914  0.76125556  0.99854617     0.17000
C521        C  0.97473950  0.78283357  0.02147116     0.03300
C522        C  0.97529001  0.82323483  0.01879889    -0.11800
C523        C  0.00235378  0.84317961  0.99447586    -0.02900
C524        C  0.02852719  0.82123942  0.97140416     0.02600
C525        C  0.00102485  0.71840439  0.00019223     0.09400
N526        N  0.94867224  0.76432441  0.04902408     0.65800
H527        H  0.95509201  0.83910987  0.03709375     0.18700
N528        N  0.05654427  0.83941994  0.94580993     0.76200
H529        H  0.04770634  0.76427921  0.95582535     0.10200
C530        C  0.96891985  0.69549516  0.98848290     0.03900
C531        C  0.96958050  0.65517782  0.99186409    -0.04800
C532        C  0.00192362  0.63716283  0.00617069    -0.23200
C533        C  0.03394415  0.65994798  0.01785473     0.13100
C534        C  0.03330449  0.70031406  0.01477494    -0.12400
N535        N  0.93609534  0.71262020  0.97189889     0.64800
H536        H  0.94505581  0.63765967  0.98247481     0.12700
N537        N  0.06735874  0.64238765  0.03244675     0.61500
H538        H  0.05799153  0.71766736  0.02401888     0.08800
O539        O  0.04975937  0.84201882  0.91000239    -0.40000
O540        O  0.09027511  0.84635757  0.95745176    -0.39200
O541        O  0.96174170  0.74392407  0.07564723    -0.39200
O542        O  0.91348858  0.77287693  0.05033478    -0.36900
O543        O  0.07157382  0.64027863  0.06876712    -0.37800
O544        O  0.09518794  0.63468170  0.00942529    -0.33900
O545        O  0.94020800  0.73191137  0.94098952    -0.35400
O546        O  0.90253491  0.70383185  0.98470004    -0.39600
C547        C  0.01555912  0.29290124  0.98986878    -0.13300
C548        C  0.98334524  0.27222420  0.00508565     0.17000
C549        C  0.95135250  0.29250203  0.01995938     0.03300
C550        C  0.95226508  0.33311160  0.01999756    -0.11800
C551        C  0.98474112  0.35384319  0.00518441    -0.02900
C552        C  0.01649023  0.33342425  0.98984787     0.02600
C553        C  0.98445308  0.22952495  0.00649655     0.09400
N554        N  0.91790735  0.27216771  0.03518257     0.65800
H555        H  0.92763450  0.34856054  0.03162499     0.18700
N556        N  0.05025558  0.35359342  0.97514688     0.76200
H557        H  0.04033002  0.27746941  0.97852794     0.10200
C558        C  0.97256355  0.20641871  0.97482096     0.03900
C559        C  0.97594180  0.16618659  0.97606561    -0.04800
C560        C  0.99163127  0.14822770  0.00842595    -0.23200
C561        C  0.00328032  0.17162238  0.04037386     0.13100
C562        C  0.99957443  0.21191726  0.03911422    -0.12400
N563        N  0.95798321  0.22358197  0.94074566     0.64800
H564        H  0.96705690  0.14902826  0.95106106     0.12700
N565        N  0.01820992  0.15497846  0.07457059     0.61500
H566        H  0.00880371  0.22962218  0.06361579     0.08800
O567        O  0.05647057  0.35586422  0.93881891    -0.40000
O568        O  0.07646930  0.36388497  0.99817998    -0.39200
O569        O  0.91285051  0.26890771  0.07156961    -0.39200
O570        O  0.89093540  0.26253470  0.01278509    -0.36900
O571        O  0.05396872  0.15735088  0.08048128    -0.37800
O572        O  0.99529268  0.14358995  0.10154042    -0.33900
O573        O  0.98066516  0.23139980  0.91234762    -0.35400
O574        O  0.92201319  0.22503398  0.93654685    -0.39600
loop_ 
_geom_bond_atom_site_label_1 
_geom_bond_atom_site_label_2 
_geom_bond_distance 
_geom_bond_site_symmetry_2 
_ccdc_geom_bond_type 
N1            C6   1.358       .  A
N1            C5   1.354       .  A
N1           H33   1.050       .  S
N2            C9   1.352       .  A
N2           C10   1.356       .  A
N3            C8   1.352   1_655  A
N3            C7   1.356   1_655  A
N3           H34   1.049       .  S
N4           C11   1.355       .  A
N4           C12   1.352       .  A
C5           C13   1.389       .  A
C5           C21   1.422       .  A
C6           C22   1.423       .  A
C6           C14   1.386       .  A
C7           C15   1.386       .  A
C7           C24   1.419   1_455  A
C8           C23   1.417   1_556  A
C8           C16   1.388       .  A
C9           C21   1.419   1_556  A
C9           C17   1.388       .  A
C10          C24   1.419       .  A
C10          C18   1.385       .  A
C11          C19   1.386       .  A
C11          C22   1.417       .  A
C12          C20   1.386       .  A
C12          C23   1.416   1_655  A
C13          C14   1.377       .  A
C13          H25   1.082   1_655  S
C14          H26   1.082   1_655  S
C15          C16   1.376       .  A
C15          H27   1.082       .  S
C16          H28   1.082       .  S
C17          C18   1.374       .  A
C17          H29   1.082       .  S
C18          H30   1.082       .  S
C19          C20   1.373       .  A
C19          H31   1.082       .  S
C20          H32   1.082       .  S
C21         C551   1.491       .  S
C22         C495   1.502       .  S
C23         C532   1.486       .  S
C24         C476   1.506       .  S
N35          C40   1.355       .  A
N35          C39   1.358       .  A
N35          H67   1.039       .  S
N36          C43   1.356       .  A
N36          C44   1.354       .  A
N37          C42   1.358   1_455  A
N37          C41   1.353   1_455  A
N37          H68   1.039       .  S
N38          C45   1.351       .  A
N38          C46   1.354       .  A
C39          C47   1.387   1_455  A
C39          C55   1.420       .  A
C40          C56   1.420       .  A
C40          C48   1.387   1_455  A
C41          C49   1.388       .  A
C41          C58   1.419       .  A
C42          C57   1.420   1_655  A
C42          C50   1.386       .  A
C43          C55   1.417       .  A
C43          C51   1.384       .  A
C44          C58   1.421   1_455  A
C44          C52   1.388       .  A
C45          C53   1.388       .  A
C45          C56   1.416       .  A
C46          C54   1.385       .  A
C46          C57   1.415       .  A
C47          C48   1.376       .  A
C47          H59   1.082       .  S
C48          H60   1.082       .  S
C49          C50   1.378       .  A
C49          H61   1.082       .  S
C50          H62   1.082       .  S
C51          C52   1.374       .  A
C51          H63   1.082       .  S
C52          H64   1.082       .  S
C53          C54   1.373       .  A
C53          H65   1.082       .  S
C54          H66   1.082       .  S
C55         C467   1.502       .  S
C56         C439   1.491       .  S
C57         C504   1.504   1_455  S
C58         C420   1.495       .  S
O69          C85   1.270   1_655  A
O69         Zn75   1.961       .  S
C70         C336   1.481       .  S
C70          O86   1.273   1_565  A
C70          O83   1.272   1_556  A
O71          C84   1.275   1_455  A
O71         Cd78   2.083       .  S
O72          C90   1.271       .  A
O72         Cd81   2.033       .  S
O73          C87   1.275       .  A
O73         Cd77   2.085       .  S
O74          C85   1.274   1_565  A
O74         Cd77   2.041       .  S
Zn75         O86   2.023       .  S
Zn75         O88   2.011       .  S
Zn75         O80   1.932   1_646  S
O76          C87   1.274   1_654  A
O76         Cd81   2.061       .  S
Cd77         O79   2.082       .  S
Cd77         O80   1.997   1_556  S
Cd78         O82   2.082       .  S
Cd78         O91   2.026       .  S
Cd78         O80   1.993   1_545  S
O79          C89   1.276   1_566  A
O80         Cd81   1.990   1_455  S
Cd81         O83   2.068       .  S
O82          C89   1.275       .  A
C84         C560   1.488       .  S
C84          O88   1.273   1_554  A
C85         C364   1.454       .  S
C87         C523   1.494       .  S
C89         C308   1.492       .  S
C90         C383   1.462       .  S
C90          O91   1.272   1_665  A
O92         C108   1.274   1_655  A
O92         Zn98   1.980       .  S
C93         C271   1.493       .  S
C93         O109   1.274       .  A
C93         O106   1.272   1_545  A
O94         C107   1.272       .  A
O94        Cd101   2.060       .  S
O95         C113   1.273   1_665  A
O95        Cd104   2.030       .  S
O96         C110   1.275       .  A
O96        Cd100   2.081       .  S
O97         C108   1.271   1_565  A
O97        Cd100   2.028       .  S
Zn98        O109   2.035       .  S
Zn98        O111   2.034       .  S
Zn98        O103   1.938   1_655  S
O99         C110   1.272   1_655  A
O99        Cd104   2.066       .  S
Cd100       O102   2.080       .  S
Cd100       O103   1.996   1_565  S
Cd101       O105   2.064       .  S
Cd101       O114   2.030       .  S
Cd101       O103   1.990       .  S
O102        C112   1.274   1_565  A
O103       Cd104   1.985   1_445  S
Cd104       O106   2.062       .  S
O105        C112   1.272       .  A
C107        C448   1.475       .  S
C107        O111   1.275   1_455  A
C108        C392   1.464   1_545  S
C110        C411   1.479   1_455  S
C112        C243   1.481       .  S
C113        C355   1.459       .  S
C113        O114   1.271       .  A
N115        C120   1.359   1_565  A
N115        C119   1.355       .  A
N115        H147   1.019       .  S
N116        C123   1.352       .  A
N116        C124   1.355       .  A
N117        C122   1.354       .  A
N117        C121   1.359       .  A
N117        H148   1.021   1_545  S
N118        C125   1.356       .  A
N118        C126   1.354       .  A
C119        C127   1.388   1_565  A
C119        C135   1.421   1_554  A
C120        C136   1.420       .  A
C120        C128   1.386       .  A
C121        C129   1.387       .  A
C121        C138   1.421   1_545  A
C122        C137   1.419   1_556  A
C122        C130   1.387       .  A
C123        C135   1.416       .  A
C123        C131   1.387       .  A
C124        C138   1.418       .  A
C124        C132   1.385       .  A
C125        C133   1.385       .  A
C125        C136   1.418       .  A
C126        C134   1.387       .  A
C126        C137   1.419       .  A
C127        C128   1.376       .  A
C127        H139   1.082       .  S
C128        H140   1.082       .  S
C129        C130   1.377       .  A
C129        H141   1.082       .  S
C130        H142   1.082       .  S
C131        C132   1.374       .  A
C131        H143   1.082       .  S
C132        H144   1.082       .  S
C133        C134   1.375       .  A
C133        H145   1.082   1_545  S
C134        H146   1.082   1_545  S
C135        C327   1.487       .  S
C136        C215   1.501       .  S
C137        C299   1.491       .  S
C138        C196   1.503       .  S
N149        C154   1.353       .  A
N149        C153   1.358       .  A
N149        H181   1.038       .  S
N150        C157   1.355       .  A
N150        C158   1.351       .  A
N151        C156   1.357   1_565  A
N151        C155   1.353   1_565  A
N151        H182   1.039       .  S
N152        C159   1.353       .  A
N152        C160   1.357       .  A
C153        C161   1.385   1_565  A
C153        C169   1.419       .  A
C154        C170   1.420       .  A
C154        C162   1.389   1_565  A
C155        C163   1.387       .  A
C155        C172   1.417       .  A
C156        C171   1.419       .  A
C156        C164   1.386       .  A
C157        C169   1.416       .  A
C157        C165   1.385       .  A
C158        C172   1.416   1_565  A
C158        C166   1.388       .  A
C159        C167   1.387       .  A
C159        C170   1.417       .  A
C160        C168   1.386       .  A
C160        C171   1.420   1_565  A
C161        C162   1.376       .  A
C161        H173   1.082       .  S
C162        H174   1.082       .  S
C163        C164   1.376       .  A
C163        H175   1.082       .  S
C164        H176   1.082       .  S
C165        C166   1.374       .  A
C165        H177   1.082       .  S
C166        H178   1.082       .  S
C167        C168   1.375       .  A
C167        H179   1.082       .  S
C168        H180   1.082       .  S
C169        C187   1.500       .  S
C170        C280   1.487       .  S
C171        C224   1.507       .  S
C172        C252   1.485       .  S
C183        C184   1.408       .  A
C183        C188   1.407       .  A
C183        H193   1.083       .  S
C184        C185   1.414   1_565  A
C184        C189   1.500       .  S
C185        C186   1.406       .  A
C185        N190   1.429       .  S
C186        C187   1.403   1_545  A
C186        H191   1.084       .  S
C187        C188   1.410       .  A
C188        N192   1.428       .  S
C189        C194   1.413       .  A
C189        C198   1.407   1_565  A
N190        O205   1.262       .  A
N190        O206   1.262       .  A
N192        O203   1.262       .  A
N192        O204   1.262       .  A
C194        C195   1.406       .  A
C194        N199   1.428       .  S
C195        C196   1.404       .  A
C195        H200   1.084       .  S
C196        C197   1.413   1_565  A
C197        C198   1.407       .  A
C197        N201   1.429       .  S
C198        H202   1.083       .  S
N199        O209   1.262       .  A
N199        O210   1.262       .  A
N201        O207   1.262       .  A
N201        O208   1.262       .  A
C211        C212   1.410       .  A
C211        C216   1.409       .  A
C211        H221   1.083       .  S
C212        C213   1.418   1_545  A
C212        C217   1.507       .  S
C213        C214   1.406       .  A
C213        N218   1.430       .  S
C214        C215   1.401   1_565  A
C214        H219   1.084       .  S
C215        C216   1.410       .  A
C216        N220   1.428       .  S
C217        C222   1.417       .  A
C217        C226   1.408   1_545  A
N218        O233   1.262       .  A
N218        O234   1.262       .  A
N220        O231   1.262       .  A
N220        O232   1.262       .  A
C222        C223   1.409       .  A
C222        N227   1.430       .  S
C223        C224   1.405       .  A
C223        H228   1.084       .  S
C224        C225   1.412   1_545  A
C225        C226   1.406       .  A
C225        N229   1.429       .  S
C226        H230   1.083       .  S
N227        O237   1.262       .  A
N227        O238   1.262       .  A
N229        O235   1.262       .  A
N229        O236   1.262       .  A
C239        C240   1.405   1_565  A
C239        C244   1.402       .  A
C239        H249   1.084       .  S
C240        C241   1.411       .  A
C240        C245   1.488   1_545  S
C241        C242   1.401       .  A
C241        N246   1.431       .  S
C242        C243   1.405       .  A
C242        H247   1.084       .  S
C243        C244   1.411   1_545  A
C244        N248   1.430       .  S
C245        C250   1.412       .  A
C245        C254   1.406   1_565  A
N246        O261   1.262       .  A
N246        O262   1.262   1_545  A
N248        O259   1.262       .  A
N248        O260   1.262   1_565  A
C250        C251   1.400       .  A
C250        N255   1.430       .  S
C251        C252   1.400   1_565  A
C251        H256   1.084       .  S
C252        C253   1.407       .  A
C253        C254   1.401       .  A
C253        N257   1.429       .  S
C254        H258   1.084       .  S
N255        O265   1.262       .  A
N255        O266   1.262       .  A
N257        O263   1.262       .  A
N257        O264   1.262       .  A
C267        C268   1.405       .  A
C267        C272   1.403       .  A
C267        H277   1.083       .  S
C268        C269   1.411   1_545  A
C268        C273   1.493       .  S
C269        C270   1.402       .  A
C269        N274   1.430       .  S
C270        C271   1.408   1_565  A
C270        H275   1.083       .  S
C271        C272   1.415       .  A
C272        N276   1.429       .  S
C273        C278   1.415       .  A
C273        C282   1.408   1_545  A
N274        O289   1.262       .  A
N274        O290   1.262       .  A
N276        O287   1.262       .  A
N276        O288   1.262       .  A
C278        C279   1.402       .  A
C278        N283   1.430       .  S
C279        C280   1.400   1_545  A
C279        H284   1.084       .  S
C280        C281   1.407       .  A
C281        C282   1.402       .  A
C281        N285   1.429       .  S
C282        H286   1.083       .  S
N283        O293   1.262       .  A
N283        O294   1.262       .  A
N285        O291   1.262       .  A
N285        O292   1.262       .  A
C295        C296   1.408   1_565  A
C295        C300   1.401       .  A
C295        H305   1.083       .  S
C296        C297   1.418   1_556  A
C296        C301   1.499       .  S
C297        C298   1.405       .  A
C297        N302   1.431       .  S
C298        C299   1.401       .  A
C298        H303   1.084       .  S
C299        C300   1.407   1_544  A
C300        N304   1.429       .  S
C301        C306   1.415   1_545  A
C301        C310   1.407   1_556  A
N302        O317   1.262       .  A
N302        O318   1.262   1_554  A
N304        O315   1.262   1_556  A
N304        O316   1.262       .  A
C306        C307   1.403       .  A
C306        N311   1.431       .  S
C307        C308   1.406   1_566  A
C307        H312   1.084       .  S
C308        C309   1.415       .  A
C309        C310   1.404       .  A
C309        N313   1.430       .  S
C310        H314   1.083       .  S
N311        O321   1.262       .  A
N311        O322   1.262   1_565  A
N313        O319   1.262       .  A
N313        O320   1.262       .  A
C323        C324   1.405   1_554  A
C323        C328   1.403       .  A
C323        H333   1.084       .  S
C324        C325   1.409   1_565  A
C324        C329   1.484   1_556  S
C325        C326   1.399       .  A
C325        N330   1.428       .  S
C326        C327   1.401   1_545  A
C326        H331   1.084       .  S
C327        C328   1.408   1_556  A
C328        N332   1.429       .  S
C329        C334   1.409       .  A
C329        C338   1.403   1_554  A
N330        O345   1.262       .  A
N330        O346   1.262   1_556  A
N332        O343   1.262   1_554  A
N332        O344   1.262       .  A
C334        C335   1.401       .  A
C334        N339   1.429       .  S
C335        C336   1.405   1_554  A
C335        H340   1.084       .  S
C336        C337   1.412       .  A
C337        C338   1.402       .  A
C337        N341   1.430       .  S
C338        H342   1.084   1_565  S
N339        O349   1.262       .  A
N339        O350   1.262   1_565  A
N341        O347   1.262       .  A
N341        O348   1.262   1_565  A
C351        C352   1.396       .  A
C351        C356   1.390       .  A
C351        H361   1.084       .  S
C352        C353   1.400   1_445  A
C352        C357   1.448       .  S
C353        C354   1.388       .  A
C353        N358   1.429       .  S
C354        C355   1.404   1_665  A
C354        H359   1.084       .  S
C355        C356   1.413       .  A
C356        N360   1.430       .  S
C357        C362   1.402   1_545  A
C357        C366   1.395   1_455  A
N358        O373   1.262   1_565  A
N358        O374   1.262       .  A
N360        O371   1.262       .  A
N360        O372   1.262       .  A
C362        C363   1.388       .  A
C362        N367   1.429       .  S
C363        C364   1.401   1_565  A
C363        H368   1.084       .  S
C364        C365   1.412   1_455  A
C365        C366   1.390       .  A
C365        N369   1.431       .  S
C366        H370   1.084       .  S
N367        O377   1.262       .  A
N367        O378   1.262   1_455  A
N369        O375   1.262   1_655  A
N369        O376   1.262       .  A
C379        C380   1.396       .  A
C379        C384   1.393       .  A
C379        H389   1.084       .  S
C380        C381   1.400   1_665  A
C380        C385   1.448   1_655  S
C381        C382   1.385       .  A
C381        N386   1.430       .  S
C382        C383   1.405   1_445  A
C382        H387   1.084       .  S
C383        C384   1.414       .  A
C384        N388   1.431       .  S
C385        C390   1.400   1_465  A
C385        C394   1.395       .  A
N386        O401   1.262       .  A
N386        O402   1.262       .  A
N388        O399   1.262       .  A
N388        O400   1.262       .  A
C390        C391   1.388       .  A
C390        N395   1.429       .  S
C391        C392   1.406   1_645  A
C391        H396   1.084       .  S
C392        C393   1.415       .  A
C393        C394   1.390       .  A
C393        N397   1.430       .  S
C394        H398   1.084       .  S
N395        O405   1.262       .  A
N395        O406   1.262       .  A
N397        O403   1.262       .  A
N397        O404   1.262       .  A
C407        C408   1.406       .  A
C407        C412   1.403       .  A
C407        H417   1.083       .  S
C408        C409   1.416   1_655  A
C408        C413   1.494       .  S
C409        C410   1.402       .  A
C409        N414   1.431       .  S
C410        C411   1.401   1_455  A
C410        H415   1.084       .  S
C411        C412   1.411       .  A
C412        N416   1.430       .  S
C413        C418   1.415       .  A
C413        C422   1.405   1_655  A
N414        O429   1.262       .  A
N414        O430   1.262       .  A
N416        O427   1.262       .  A
N416        O428   1.262       .  A
C418        C419   1.404       .  A
C418        N423   1.430       .  S
C419        C420   1.405       .  A
C419        H424   1.084       .  S
C420        C421   1.410   1_655  A
C421        C422   1.399       .  A
C421        N425   1.430       .  S
C422        H426   1.083       .  S
N423        O433   1.262       .  A
N423        O434   1.262       .  A
N425        O431   1.262       .  A
N425        O432   1.262       .  A
C435        C436   1.408       .  A
C435        C440   1.403       .  A
C435        H445   1.083       .  S
C436        C437   1.414   1_455  A
C436        C441   1.492       .  S
C437        C438   1.399       .  A
C437        N442   1.431       .  S
C438        C439   1.402   1_655  A
C438        H443   1.084       .  S
C439        C440   1.409       .  A
C440        N444   1.430       .  S
C441        C446   1.415       .  A
C441        C450   1.407   1_455  A
N442        O457   1.262       .  A
N442        O458   1.262       .  A
N444        O455   1.262       .  A
N444        O456   1.262       .  A
C446        C447   1.401       .  A
C446        N451   1.431       .  S
C447        C448   1.401       .  A
C447        H452   1.084       .  S
C448        C449   1.408   1_455  A
C449        C450   1.401       .  A
C449        N453   1.429       .  S
C450        H454   1.083       .  S
N451        O461   1.262       .  A
N451        O462   1.262       .  A
N453        O459   1.262       .  A
N453        O460   1.262       .  A
C463        C464   1.408   1_455  A
C463        C468   1.407       .  A
C463        H473   1.083       .  S
C464        C465   1.417       .  A
C464        C469   1.505       .  S
C465        C466   1.407       .  A
C465        N470   1.429       .  S
C466        C467   1.404   1_655  A
C466        H471   1.084       .  S
C467        C468   1.410       .  A
C468        N472   1.428       .  S
C469        C474   1.416   1_655  A
C469        C478   1.407       .  A
N470        O485   1.262       .  A
N470        O486   1.262       .  A
N472        O483   1.262       .  A
N472        O484   1.262       .  A
C474        C475   1.408       .  A
C474        N479   1.429       .  S
C475        C476   1.405   1_455  A
C475        H480   1.084       .  S
C476        C477   1.413       .  A
C477        C478   1.407       .  A
C477        N481   1.430       .  S
C478        H482   1.083       .  S
N479        O489   1.262       .  A
N479        O490   1.262       .  A
N481        O487   1.262       .  A
N481        O488   1.262       .  A
C491        C492   1.409   1_455  A
C491        C496   1.406       .  A
C491        H501   1.083       .  S
C492        C493   1.422       .  A
C492        C497   1.509       .  S
C493        C494   1.412       .  A
C493        N498   1.436       .  S
C494        C495   1.403       .  A
C494        H499   1.083       .  S
C495        C496   1.408   1_655  A
C496        N500   1.429       .  S
C497        C502   1.421       .  A
C497        C506   1.410   1_655  A
N498        O513   1.262       .  A
N498        O514   1.263       .  A
N500        O511   1.261       .  A
N500        O512   1.262       .  A
C502        C503   1.410       .  A
C502        N507   1.435       .  S
C503        C504   1.404       .  A
C503        H508   1.084       .  S
C504        C505   1.410   1_655  A
C505        C506   1.408       .  A
C505        N509   1.431       .  S
C506        H510   1.083       .  S
N507        O517   1.262       .  A
N507        O518   1.263       .  A
N509        O515   1.262       .  A
N509        O516   1.262       .  A
C519        C520   1.402       .  A
C519        C524   1.403       .  A
C519        H529   1.084       .  S
C520        C521   1.409   1_456  A
C520        C525   1.483   1_556  S
C521        C522   1.400       .  A
C521        N526   1.433       .  S
C522        C523   1.409   1_654  A
C522        H527   1.083       .  S
C523        C524   1.417       .  A
C524        N528   1.429       .  S
C525        C530   1.412   1_454  A
C525        C534   1.404       .  A
N526        O541   1.262       .  A
N526        O542   1.262       .  A
N528        O539   1.262       .  A
N528        O540   1.262       .  A
C530        C531   1.401       .  A
C530        N535   1.432       .  S
C531        C532   1.401   1_656  A
C531        H536   1.084       .  S
C532        C533   1.408       .  A
C533        C534   1.401       .  A
C533        N537   1.428       .  S
C534        H538   1.084       .  S
N535        O545   1.262       .  A
N535        O546   1.262       .  A
N537        O543   1.262       .  A
N537        O544   1.262       .  A
C547        C548   1.401   1_456  A
C547        C552   1.400       .  A
C547        H557   1.084       .  S
C548        C549   1.409       .  A
C548        C553   1.479       .  S
C549        C550   1.403       .  A
C549        N554   1.428       .  S
C550        C551   1.404       .  A
C550        H555   1.084       .  S
C551        C552   1.410   1_654  A
C552        N556   1.428       .  S
C553        C558   1.405   1_554  A
C553        C562   1.402       .  A
N554        O569   1.262       .  A
N554        O570   1.262       .  A
N556        O567   1.262       .  A
N556        O568   1.262       .  A
C558        C559   1.400       .  A
C558        N563   1.428       .  S
C559        C560   1.408   1_556  A
C559        H564   1.084       .  S
C560        C561   1.415   1_655  A
C561        C562   1.404   1_455  A
C561        N565   1.429       .  S
C562        H566   1.084   1_655  S
N563        O573   1.262       .  A
N563        O574   1.262       .  A
N565        O571   1.262       .  A
N565        O572   1.262   1_455  A
