geometry optimzed in LAMMPS
_audit_creation_date              2020-11-30 
_audit_creation_method            'lammps2cif' 
_symmetry_space_group_name_H-M    'P1' 
_symmetry_Int_Tables_number       1 
_symmetry_cell_setting            triclinic 
loop_ 
_symmetry_equiv_pos_as_xyz 
  x,y,z 
_cell_length_a                    30.29657326 
_cell_length_b                    42.57221113363129 
_cell_length_c                    36.4354648593531 
_cell_angle_alpha                 90.00164412340423 
_cell_angle_beta                  91.12892904171365 
_cell_angle_gamma                 90.21759381358711 
loop_ 
_atom_site_label 
_atom_site_type_symbol 
_atom_site_fract_x 
_atom_site_fract_y 
_atom_site_fract_z 
_atom_site_charge 
C1          C  0.74690144  0.26418213  0.36299107     0.86500
C2          C  0.70510423  0.26139273  0.38499420    -0.53700
C3          C  0.67865628  0.23667511  0.37574558     0.09400
C4          C  0.69897361  0.21475973  0.34631941     0.20400
C5          C  0.77113292  0.23316378  0.36947226    -0.54400
C6          C  0.74678673  0.20693089  0.36067633     0.09500
C7          C  0.73131791  0.26314719  0.32280051    -0.54000
C8          C  0.70666630  0.23729342  0.31363893     0.10100
H9          H  0.69567615  0.27877364  0.40523016     0.14600
H10         H  0.67824356  0.19405045  0.33905376     0.00400
H11         H  0.80522179  0.23212980  0.37918730     0.14900
H12         H  0.73985021  0.28119544  0.30304688     0.14700
C13         C  0.74169782  0.19810303  0.00829410     0.86500
C14         C  0.70878752  0.24126663  0.48257389    -0.53700
C15         C  0.68088065  0.26402551  0.49406795     0.09400
C16         C  0.69932641  0.24783355  0.03023900     0.20400
C17         C  0.77256744  0.27389989  0.49516051    -0.54400
C18         C  0.74634741  0.25507235  0.01551930     0.09500
C19         C  0.72952246  0.19704492  0.04876402    -0.54000
C20         C  0.70748059  0.22285538  0.06081559     0.10100
H21         H  0.69886922  0.22358996  0.46247110     0.14600
H22         H  0.68103165  0.26881145  0.03951548     0.00400
H23         H  0.80502306  0.27747814  0.48365722     0.14900
H24         H  0.73801833  0.17736789  0.06650827     0.14700
O25         O  0.61382001  0.26404383  0.39052892    -0.72900
O26         O  0.52114790  0.28091039  0.46393017    -0.73900
O27         O  0.61658448  0.28413619  0.46319256    -0.62500
O28         O  0.51801103  0.26399464  0.39020904    -0.70900
O29         O  0.52096699  0.21398215  0.40712294    -0.70500
O30         O  0.61689527  0.23414939  0.48066839    -0.61700
O31         O  0.52139745  0.23088624  0.48103227    -0.74200
O32         O  0.61757415  0.21410624  0.40785381    -0.73000
Cu33       Cu  0.56717884  0.27494705  0.42638037     1.04600
Cu34       Cu  0.56912704  0.22152422  0.44474276     1.04300
C35         C  0.63329337  0.23737017  0.39023510     0.93300
C36         C  0.50464634  0.25826625  0.48234717     0.92400
C37         C  0.63460959  0.26154595  0.48079881     0.84600
C38         C  0.50218594  0.23621947  0.38900376     0.90800
C39         C  0.39099059  0.20069721  0.36061566     0.86500
C40         C  0.43575211  0.20393393  0.37974945    -0.53700
C41         C  0.45936749  0.22974004  0.36995859     0.09400
C42         C  0.43479255  0.25070758  0.34114454     0.20400
C43         C  0.36659401  0.23137897  0.36841369    -0.54400
C44         C  0.38899797  0.25780514  0.35811303     0.09500
C45         C  0.40074948  0.20183354  0.31976801    -0.54000
C46         C  0.42385474  0.22766856  0.30906681     0.10100
H47         H  0.44749017  0.18708145  0.40010094     0.14600
H48         H  0.45354912  0.27189521  0.33280239     0.00400
H49         H  0.33392289  0.23229455  0.38002006     0.14900
H50         H  0.39054068  0.18331777  0.30085351     0.14700
C51         C  0.38786782  0.26448513  0.00569379     0.86500
C52         C  0.44032039  0.29059297  0.49510268    -0.53700
C53         C  0.46378492  0.26414464  0.50259079     0.09400
C54         C  0.43638760  0.21611121  0.02429131     0.20400
C55         C  0.37178760  0.26464731  0.51086268    -0.54400
C56         C  0.38870011  0.20739216  0.01026485     0.09500
C57         C  0.40323320  0.26468342  0.04585848    -0.54000
C58         C  0.42815374  0.23944694  0.05608238     0.10100
H59         H  0.45012203  0.30781524  0.47475406     0.14600
H60         H  0.45728050  0.19582327  0.03242274     0.00400
H61         H  0.33757658  0.26504312  0.50141204     0.14900
H62         H  0.39410034  0.28307709  0.06492636     0.14700
C63         C  0.89800987  0.45452185  0.35457999     0.86500
C64         C  0.93855259  0.45940557  0.37902406    -0.53700
C65         C  0.96260087  0.98528615  0.37024343     0.09400
C66         C  0.94219094  0.00512787  0.33835054     0.20400
C67         C  0.87101430  0.48477033  0.35812592    -0.54400
C68         C  0.89367731  0.01167292  0.34985929     0.09500
C69         C  0.91505698  0.45510130  0.31557954    -0.54000
C70         C  0.93764414  0.98113443  0.30627916     0.10100
H71         H  0.94758089  0.44304710  0.40080127     0.14600
H72         H  0.96145508  0.02647821  0.33142413     0.00400
H73         H  0.83644051  0.98506580  0.36634074     0.14900
H74         H  0.90821293  0.43624692  0.29616904     0.14700
C75         C  0.88374192  0.00855776  0.00051487     0.86500
C76         C  0.93903475  0.04680404  0.49040757    -0.53700
C77         C  0.96207897  0.52085080  0.50333671     0.09400
C78         C  0.93658602  0.46411684  0.02641098     0.20400
C79         C  0.86858556  0.02138968  0.50129980    -0.54400
C80         C  0.89150683  0.45189920  0.00973397     0.09500
C81         C  0.89403054  0.01086451  0.04164171    -0.54000
C82         C  0.92273956  0.48820469  0.05602379     0.10100
H83         H  0.95147682  0.06248730  0.46940621     0.14600
H84         H  0.95898390  0.44549616  0.03703400     0.00400
H85         H  0.83670995  0.52029818  0.48934401     0.14900
H86         H  0.88079724  0.02950456  0.05846310     0.14700
O87         O  0.02096307  0.46846642  0.41071198    -0.72900
O88         O  0.11481234  0.48377647  0.48668447    -0.73900
O89         O  0.01882809  0.48499793  0.48474488    -0.62500
O90         O  0.11701169  0.46525364  0.41355922    -0.70900
O91         O  0.11624392  0.01535167  0.39573993    -0.70500
O92         O  0.02373116  0.03526760  0.46810592    -0.61700
O93         O  0.11950754  0.03382183  0.46886765    -0.74200
O94         O  0.02074138  0.01878841  0.39392437    -0.73000
Cu95       Cu  0.06763616  0.47387563  0.44949497     1.04600
Cu96       Cu  0.06997479  0.02751329  0.43117846     1.04300
C97         C  0.00422911  0.49129604  0.39235683     0.93300
C98         C  0.13539899  0.51009823  0.48706092     0.92400
C99         C  0.00454454  0.51315099  0.48598839     0.84600
C100        C  0.13467270  0.48807367  0.39634536     0.90800
C101        C  0.25236873  0.01041681  0.37814592     0.86500
C102        C  0.20831990  0.00901403  0.39694173    -0.53700
C103        C  0.18087631  0.48637047  0.38401166     0.09400
C104        C  0.20142668  0.46568359  0.35343927     0.20400
C105        C  0.27198477  0.97783156  0.38259244    -0.54400
C106        C  0.24676695  0.45400462  0.36965626     0.09500
C107        C  0.24072482  0.01355731  0.33731352    -0.54000
C108        C  0.21483639  0.49029612  0.32414466     0.10100
H109        H  0.19894598  0.02577432  0.41789130     0.14600
H110        H  0.17931917  0.44682325  0.34274475     0.00400
H111        H  0.30554975  0.47401399  0.39492349     0.14900
H112        H  0.25296343  0.03270863  0.32055583     0.14700
C113        C  0.24008235  0.45438801  0.02466404     0.86500
C114        C  0.20712506  0.48565877  0.48993318    -0.53700
C115        C  0.18086889  0.01004600  0.50036886     0.09400
C116        C  0.19606464  0.00533387  0.03838972     0.20400
C117        C  0.27395785  0.51594382  0.49949550    -0.54400
C118        C  0.24384303  0.01130747  0.02515126     0.09500
C119        C  0.22510485  0.45672456  0.06429251    -0.54000
C120        C  0.20219221  0.98311078  0.07172770     0.10100
H121        H  0.19522542  0.46857179  0.46994915     0.14600
H122        H  0.17730794  0.02696978  0.04462251     0.00400
H123        H  0.30568638  0.01782814  0.48740289     0.14900
H124        H  0.23247029  0.43887176  0.08481751     0.14700
C125        C  0.17706019  0.47766238  0.16449001     0.29800
C126        C  0.17100204  0.46055830  0.19697627    -0.36500
C127        C  0.18165780  0.47623954  0.22979539     0.15800
C128        C  0.19555660  0.00685357  0.23010981     0.21600
C129        C  0.20093424  0.02411075  0.19757361    -0.34700
C130        C  0.19048612  0.00825798  0.16474237     0.15700
O131        O  0.17555101  0.46592427  0.13109697    -0.26700
C132        C  0.18795310  0.98908221  0.10953909     0.05500
C133        C  0.19769730  0.01640884  0.12903418    -0.31600
O134        O  0.20787513  0.01587902  0.26332056    -0.23400
C135        C  0.20141513  0.49076724  0.28480517    -0.03400
C136        C  0.18382524  0.46552331  0.26516166    -0.17800
H137        H  0.16123730  0.43608208  0.19655157     0.20200
H138        H  0.21476309  0.04759001  0.19776762     0.18600
H139        H  0.21282430  0.03771830  0.11893625     0.18500
H140        H  0.17632306  0.44216647  0.27500176     0.14400
C141        C  0.95652652  0.00252917  0.21497423     0.29800
C142        C  0.94909122  0.02106408  0.18364732    -0.36500
C143        C  0.94912306  0.00524513  0.14980172     0.15800
C144        C  0.95836097  0.47387611  0.14745217     0.21600
C145        C  0.96777921  0.45557583  0.17869279    -0.34700
C146        C  0.96693389  0.47131682  0.21264572     0.15700
O147        O  0.94996408  0.01126813  0.24932583    -0.26700
C148        C  0.95435740  0.98480762  0.26846365     0.05500
C149        C  0.96668058  0.45960202  0.24730611    -0.31600
O150        O  0.95163277  0.46340010  0.11352003    -0.23400
C151        C  0.93879876  0.48881588  0.09488344    -0.03400
C152        C  0.93723300  0.01544523  0.11577053    -0.17800
H153        H  0.94041449  0.04563179  0.18566134     0.20200
H154        H  0.97215439  0.43040435  0.17692263     0.18600
H155        H  0.96907098  0.43514033  0.25518450     0.18500
H156        H  0.92750564  0.03902697  0.10817724     0.14400
C157        C  0.31717261  0.14147094  0.01233357     0.29800
C158        C  0.27992823  0.15688141  0.51186471    -0.36500
C159        C  0.27696860  0.09313674  0.01682150     0.15800
C160        C  0.31593575  0.07670829  0.02040225     0.21600
C161        C  0.35711190  0.09225990  0.02065077    -0.34700
C162        C  0.35610604  0.12514009  0.01667982     0.15700
O163        O  0.32376455  0.17201351  0.00898397    -0.26700
C164        C  0.36756112  0.17561141  0.01146049     0.05500
C165        C  0.38938785  0.14710387  0.01638644    -0.31600
O166        O  0.30937467  0.04612383  0.02359805    -0.23400
C167        C  0.26555038  0.04272877  0.02247780    -0.03400
C168        C  0.24366431  0.07131578  0.01842716    -0.17800
H169        H  0.24921369  0.16969720  0.51297352     0.20200
H170        H  0.38782750  0.07957992  0.02385850     0.18600
H171        H  0.42451021  0.14309808  0.01937939     0.18500
H172        H  0.20847365  0.07540154  0.01639743     0.14400
C173        C  0.30957051  0.39110668  0.00131955     0.29800
C174        C  0.34874993  0.37618023  0.99163512    -0.36500
C175        C  0.34778415  0.34326620  0.99217550     0.15800
C176        C  0.31087083  0.32610413  0.00133645     0.21600
C177        C  0.27148675  0.34102438  0.01043935    -0.34700
C178        C  0.27258211  0.37390973  0.01029129     0.15700
O179        O  0.30380503  0.42164074  0.00500202    -0.26700
C180        C  0.26261691  0.42390104  0.01663549     0.05500
C181        C  0.24170223  0.39495800  0.02034890    -0.31600
O182        O  0.31897351  0.29580355  0.00443618    -0.23400
C183        C  0.36147011  0.29335367  0.99645928    -0.03400
C184        C  0.38100632  0.32232666  0.98902350    -0.17800
H185        H  0.37847958  0.38927615  0.98574814     0.20200
H186        H  0.24270756  0.32794791  0.01888739     0.18600
H187        H  0.22666744  0.42249446  0.47837796     0.18500
H188        H  0.41559815  0.32763011  0.98530753     0.14400
C189        C  0.31725949  0.32303506  0.36146021     0.29800
C190        C  0.27607701  0.33847193  0.36044591    -0.36500
C191        C  0.27724878  0.37149285  0.36266912     0.15800
C192        C  0.31639974  0.38787838  0.36628136     0.21600
C193        C  0.35748975  0.37252318  0.36701815    -0.34700
C194        C  0.35633439  0.33963364  0.36416820     0.15700
O195        O  0.32378403  0.29242615  0.35943536    -0.26700
C196        C  0.36764208  0.28923671  0.36028360     0.05500
C197        C  0.38963848  0.31794239  0.36319599    -0.31600
O198        O  0.31023036  0.41837719  0.36888990    -0.23400
C199        C  0.26652374  0.42206242  0.36667268    -0.03400
C200        C  0.24414099  0.39356501  0.36244698    -0.17800
H201        H  0.24529798  0.32560725  0.35795272     0.20200
H202        H  0.38826459  0.38539988  0.36951920     0.18600
H203        H  0.42486730  0.32218516  0.36465855     0.18500
H204        H  0.20887846  0.38963301  0.36038540     0.14400
C205        C  0.36245853  0.12195663  0.37555987     0.29800
C206        C  0.36705864  0.08966990  0.37058005    -0.36500
C207        C  0.33328788  0.07108917  0.38440664     0.15800
C208        C  0.29743388  0.08339720  0.40221755     0.21600
C209        C  0.29353101  0.11582897  0.40822269    -0.34700
C210        C  0.32713047  0.13453948  0.39374100     0.15700
O211        O  0.38838222  0.14345682  0.36192126    -0.26700
C212        C  0.36958846  0.17036459  0.37111334     0.05500
C213        C  0.33126645  0.16636353  0.39117297    -0.31600
O214        O  0.26579876  0.06250700  0.40622629    -0.23400
C215        C  0.28176300  0.03663881  0.39092055    -0.03400
C216        C  0.32397798  0.04053134  0.37756083    -0.17800
H217        H  0.39357451  0.07989994  0.35473496     0.20200
H218        H  0.26470667  0.12589214  0.42071660     0.18600
H219        H  0.30944240  0.18399206  0.40198033     0.18500
H220        H  0.34219597  0.02450285  0.36050938     0.14400
C221        C  0.44463330  0.21674781  0.21545621     0.29800
C222        C  0.44476040  0.19933604  0.18264231    -0.36500
C223        C  0.44777345  0.21674946  0.15008810     0.15800
C224        C  0.45028967  0.24910682  0.15007632     0.21600
C225        C  0.45113842  0.26646268  0.18295533    -0.34700
C226        C  0.44819977  0.24904553  0.21552549     0.15700
O227        O  0.43745944  0.20538995  0.24838467    -0.26700
C228        C  0.43677190  0.23055726  0.27015049     0.05500
C229        C  0.44366675  0.25849079  0.25123368    -0.31600
O230        O  0.44677913  0.26091704  0.11676786    -0.23400
C231        C  0.44249134  0.23593537  0.09492699    -0.03400
C232        C  0.44337671  0.20768479  0.11412754    -0.17800
H233        H  0.44041878  0.17409102  0.18244114     0.20200
H234        H  0.45157205  0.29188114  0.18299466     0.18600
H235        H  0.44232809  0.28224648  0.26171607     0.18500
H236        H  0.43712398  0.18429237  0.10354869     0.14400
C237        C  0.82190620  0.38535662  0.01598474     0.29800
C238        C  0.78081426  0.37001263  0.01861298    -0.36500
C239        C  0.78129440  0.33704239  0.01696500     0.15800
C240        C  0.81964066  0.32030774  0.01251329     0.21600
C241        C  0.86096751  0.33570799  0.01013191    -0.34700
C242        C  0.86058027  0.36882125  0.01234103     0.15700
O243        O  0.82837576  0.41599621  0.01610734    -0.26700
C244        C  0.87191535  0.41968591  0.01296058     0.05500
C245        C  0.89386682  0.39096860  0.01074461    -0.31600
O246        O  0.81231482  0.28964306  0.01118486    -0.23400
C247        C  0.76869833  0.28652970  0.01519760    -0.03400
C248        C  0.74776892  0.31540751  0.01895782    -0.17800
H249        H  0.75045052  0.38297677  0.02165303     0.20200
H250        H  0.88816199  0.36728272  0.50518227     0.18600
H251        H  0.92533084  0.43047886  0.50982509     0.18500
H252        H  0.71296269  0.31989596  0.02234916     0.14400
C253        C  0.86817684  0.13098931  0.49301470     0.29800
C254        C  0.87190876  0.16287562  0.50159512    -0.36500
C255        C  0.83572675  0.18138776  0.49172763     0.15800
C256        C  0.77009416  0.11967809  0.98889226     0.21600
C257        C  0.76498898  0.08708657  0.99225102    -0.34700
C258        C  0.80249798  0.06912033  0.98539219     0.15700
O259        O  0.89498912  0.10910712  0.50506215    -0.26700
C260        C  0.85588205  0.03540335  0.98686438     0.05500
C261        C  0.81102095  0.03843939  0.99325596    -0.31600
O262        O  0.74160149  0.14079739  0.99960815    -0.23400
C263        C  0.76280921  0.16801851  0.99603924    -0.03400
C264        C  0.82562340  0.21098665  0.50237795    -0.17800
H265        H  0.89940282  0.17203444  0.51779755     0.20200
H266        H  0.73504701  0.07670520  0.00263357     0.18600
H267        H  0.78912150  0.02146708  0.00556589     0.18500
H268        H  0.84498285  0.22657859  0.51985236     0.14400
C269        C  0.82117880  0.07680127  0.35288929     0.29800
C270        C  0.77987517  0.09200590  0.35156216    -0.36500
C271        C  0.78033245  0.12481940  0.35645850     0.15800
C272        C  0.81884476  0.14143336  0.36275147     0.21600
C273        C  0.86021204  0.12624790  0.36402442    -0.34700
C274        C  0.85980786  0.09346558  0.35851186     0.15700
O275        O  0.82813779  0.04634451  0.34892917    -0.26700
C276        C  0.87194027  0.04318230  0.35153689     0.05500
C277        C  0.89339302  0.07188379  0.35738814    -0.31600
O278        O  0.81181548  0.17194709  0.36589015    -0.23400
C279        C  0.76816565  0.17523259  0.36130727    -0.03400
C280        C  0.74689322  0.14651810  0.35536876    -0.17800
H281        H  0.74946981  0.07913569  0.34665411     0.20200
H282        H  0.89065314  0.13917832  0.36851945     0.18600
H283        H  0.92843011  0.07613783  0.36108767     0.18500
H284        H  0.71208067  0.14223398  0.35036100     0.14400
C285        C  0.82434227  0.32613487  0.37238757     0.29800
C286        C  0.86500255  0.34111684  0.36736676    -0.36500
C287        C  0.86442242  0.37401625  0.36869291     0.15800
C288        C  0.82671130  0.39113561  0.37511713     0.21600
C289        C  0.78629122  0.37612468  0.38093109    -0.34700
C290        C  0.78671462  0.34326403  0.37894011     0.15700
O291        O  0.81613676  0.29590279  0.36781647    -0.26700
C292        C  0.77270975  0.29358853  0.37188268     0.05500
C293        C  0.75281194  0.32247568  0.37840206    -0.31600
O294        O  0.83296580  0.42169929  0.37190444    -0.23400
C295        C  0.87521389  0.42410022  0.36316316    -0.03400
C296        C  0.89639679  0.39520301  0.36107302    -0.17800
H297        H  0.89447416  0.32814748  0.36077329     0.20200
H298        H  0.75612090  0.38919401  0.38463211     0.18600
H299        H  0.71798350  0.32774561  0.38002928     0.18500
H300        H  0.93012454  0.39058998  0.35345856     0.14400
C301        C  0.68844508  0.21133588  0.15500257     0.29800
C302        C  0.69061498  0.19446104  0.18822884    -0.36500
C303        C  0.68615289  0.21212126  0.22051778     0.15800
C304        C  0.68008020  0.24421800  0.21993121     0.21600
C305        C  0.67662051  0.26091709  0.18667495    -0.34700
C306        C  0.68117425  0.24327946  0.15441061     0.15700
O307        O  0.69685371  0.20009910  0.12216772    -0.26700
C308        C  0.69468317  0.22501618  0.09997250     0.05500
C309        C  0.68460911  0.25256710  0.11856378    -0.31600
O310        O  0.68348581  0.25677988  0.25293026    -0.23400
C311        C  0.69120929  0.23250055  0.27520105    -0.03400
C312        C  0.69262880  0.20397392  0.25659731    -0.17800
H313        H  0.69795176  0.16960511  0.18892508     0.20200
H314        H  0.67344264  0.28622262  0.18610245     0.18600
H315        H  0.68317698  0.27623273  0.10779077     0.18500
H316        H  0.70186794  0.18123403  0.26752952     0.14400
C317        C  0.73611230  0.29738299  0.84893505     0.86500
C318        C  0.69553117  0.29345475  0.87253512    -0.53700
C319        C  0.67177004  0.26671891  0.86586667     0.09400
C320        C  0.69240995  0.24538777  0.83615010     0.20400
C321        C  0.76368596  0.26763615  0.85550904    -0.54400
C322        C  0.74124427  0.24017913  0.84890290     0.09500
C323        C  0.71871632  0.29446184  0.80949189    -0.54000
C324        C  0.69585736  0.26741836  0.80246698     0.10100
H325        H  0.68614714  0.31086753  0.89272648     0.14600
H326        H  0.67368829  0.22340395  0.83042260     0.00400
H327        H  0.79817941  0.26822067  0.86418443     0.14900
H328        H  0.72450465  0.31221137  0.78866944     0.14700
C329        C  0.75364535  0.24133650  0.50165576     0.86500
C330        C  0.69828935  0.20350799  0.98781461    -0.53700
C331        C  0.67527252  0.22909825  0.99897274     0.09400
C332        C  0.70193866  0.28646163  0.52335364     0.20400
C333        C  0.76797662  0.22879297  0.00400903    -0.54400
C334        C  0.74675567  0.29796750  0.50698052     0.09500
C335        C  0.74358382  0.24008787  0.54255651    -0.54000
C336        C  0.71607049  0.26322909  0.55423108     0.10100
H337        H  0.68678409  0.18806823  0.96582867     0.14600
H338        H  0.67972223  0.30545751  0.53250399     0.00400
H339        H  0.80106266  0.22984399  0.99326280     0.14900
H340        H  0.75590914  0.22152932  0.56044393     0.14700
O341        O  0.61452993  0.28295689  0.90543452    -0.72900
O342        O  0.52165111  0.26477281  0.97921123    -0.73900
O343        O  0.61776876  0.26464705  0.97912802    -0.62500
O344        O  0.51797779  0.28519489  0.90650170    -0.70900
O345        O  0.51757709  0.23543224  0.88827386    -0.70500
O346        O  0.61353124  0.21493105  0.96121830    -0.61700
O347        O  0.51706826  0.21509694  0.96099196    -0.74200
O348        O  0.61368206  0.23316264  0.88759440    -0.73000
Cu349      Cu  0.56819459  0.27610051  0.94314950     1.04600
Cu350      Cu  0.56556781  0.22296995  0.92391462     1.04300
C351        C  0.63087309  0.26057545  0.88660239     0.93300
C352        C  0.50184458  0.23812183  0.97924700     0.92400
C353        C  0.63285606  0.23668784  0.97983980     0.84600
C354        C  0.49972605  0.26264365  0.88864394     0.90800
C355        C  0.38075244  0.24140336  0.86656600     0.86500
C356        C  0.42493663  0.24221178  0.88691621    -0.53700
C357        C  0.45332574  0.26487708  0.87520445     0.09400
C358        C  0.43327604  0.28613720  0.84433814     0.20400
C359        C  0.36156678  0.27404509  0.87102785    -0.54400
C360        C  0.38787270  0.29788682  0.85893082     0.09500
C361        C  0.39251162  0.23889604  0.82613591    -0.54000
C362        C  0.42015728  0.26189885  0.81418269     0.10100
H363        H  0.43419377  0.22500534  0.90770207     0.14600
H364        H  0.45575984  0.30497353  0.83488148     0.00400
H365        H  0.32862359  0.27776857  0.88142752     0.14900
H366        H  0.38052392  0.21991249  0.80860274     0.14700
C367        C  0.39931859  0.29449871  0.51777225     0.86500
C368        C  0.42978791  0.26162682  0.98386195    -0.53700
C369        C  0.45648058  0.23737588  0.99394183     0.09400
C370        C  0.44250855  0.24294775  0.53211542     0.20400
C371        C  0.36403129  0.23306064  0.00036377    -0.54400
C372        C  0.39409949  0.23737890  0.51843713     0.09500
C373        C  0.41535153  0.29200421  0.55757523    -0.54000
C374        C  0.43795357  0.26518810  0.56534431     0.10100
H375        H  0.43905226  0.27858617  0.96305229     0.14600
H376        H  0.46129003  0.22123557  0.53851542     0.00400
H377        H  0.32989824  0.23138733  0.99084638     0.14900
H378        H  0.40898762  0.30991712  0.57804796     0.14700
C379        C  0.88702467  0.48793034  0.86659830     0.86500
C380        C  0.93057598  0.48988787  0.88766567    -0.53700
C381        C  0.95726297  0.01461652  0.87733087     0.09400
C382        C  0.93590520  0.03628544  0.84737015     0.20400
C383        C  0.86496318  0.51959803  0.87306776    -0.54400
C384        C  0.88936678  0.04541307  0.86226404     0.09500
C385        C  0.89935580  0.48818625  0.82621478    -0.54000
C386        C  0.92515192  0.01308609  0.81550099     0.10100
H387        H  0.94049462  0.47283049  0.90839008     0.14600
H388        H  0.95693916  0.05639423  0.83917987     0.00400
H389        H  0.83141341  0.02167425  0.88264592     0.14900
H390        H  0.88818672  0.47000221  0.80725578     0.14700
C391        C  0.89467604  0.05188549  0.50791972     0.86500
C392        C  0.92845280  0.00809522  0.98269420    -0.53700
C393        C  0.95707830  0.48562419  0.99647389     0.09400
C394        C  0.93677397  0.50178365  0.53267578     0.20400
C395        C  0.86479110  0.97569886  0.99477467    -0.54400
C396        C  0.89055245  0.49480993  0.51470220     0.09500
C397        C  0.90454141  0.05236111  0.54908466    -0.54000
C398        C  0.92741802  0.52649357  0.56300457     0.10100
H399        H  0.93808816  0.02523788  0.96218313     0.14600
H400        H  0.95454714  0.48065878  0.54286041     0.00400
H401        H  0.83247425  0.47133816  0.98459527     0.14900
H402        H  0.89467265  0.07177089  0.56638830     0.14700
O403        O  0.02191435  0.48591517  0.89365720    -0.72900
O404        O  0.11644641  0.46801614  0.96845016    -0.73900
O405        O  0.02067430  0.46546168  0.96646560    -0.62500
O406        O  0.11725359  0.48524665  0.89460158    -0.70900
O407        O  0.11602983  0.03534256  0.91203388    -0.70500
O408        O  0.02062084  0.01555854  0.98340941    -0.61700
O409        O  0.11638324  0.01774357  0.98592699    -0.74200
O410        O  0.01959530  0.03643051  0.91056467    -0.73000
Cu411      Cu  0.06926096  0.47448101  0.93024087     1.04600
Cu412      Cu  0.06832345  0.02801898  0.94861711     1.04300
C413        C  0.00312724  0.51283892  0.89279815     0.93300
C414        C  0.13339007  0.49046977  0.98748130     0.92400
C415        C  0.00315126  0.48806596  0.98385307     0.84600
C416        C  0.13318291  0.51296930  0.89347010     0.90800
C417        C  0.23820489  0.05064174  0.85704457     0.86500
C418        C  0.19770735  0.04619500  0.88036846    -0.53700
C419        C  0.17380408  0.51967181  0.87284832     0.09400
C420        C  0.19427480  0.49933467  0.84209317     0.20400
C421        C  0.26572163  0.02065535  0.86219010    -0.54400
C422        C  0.24318753  0.49372803  0.85439753     0.09500
C423        C  0.22081229  0.04904931  0.81747419    -0.54000
C424        C  0.19774247  0.52242480  0.80942512     0.10100
H425        H  0.18844082  0.06301491  0.90128639     0.14600
H426        H  0.17542018  0.47761477  0.83537831     0.00400
H427        H  0.30024261  0.52114612  0.87069358     0.14900
H428        H  0.22697923  0.06736237  0.79740535     0.14700
C429        C  0.25264606  0.48438043  0.50818672     0.86500
C430        C  0.19822103  0.45806564  0.00148164    -0.53700
C431        C  0.17407325  0.98407455  0.00850231     0.09400
C432        C  0.20450177  0.03244654  0.52801965     0.20400
C433        C  0.26687143  0.48452249  0.01818023    -0.54400
C434        C  0.24936838  0.04136651  0.51019935     0.09500
C435        C  0.24396002  0.48540486  0.54932044    -0.54000
C436        C  0.21779018  0.01004928  0.55986216     0.10100
H437        H  0.18808854  0.44088583  0.98087503     0.14600
H438        H  0.18413233  0.05268406  0.53653818     0.00400
H439        H  0.30022760  0.98415109  0.00869618     0.14900
H440        H  0.25560223  0.46731303  0.56815935     0.14700
C441        C  0.19224328  0.49757753  0.65212887     0.29800
C442        C  0.19195435  0.48032912  0.68493213    -0.36500
C443        C  0.18205006  0.49719829  0.71669203     0.15800
C444        C  0.17241214  0.02882593  0.71581292     0.21600
C445        C  0.17100910  0.04583063  0.68271500    -0.34700
C446        C  0.18077411  0.02886951  0.65090009     0.15700
O447        O  0.20568179  0.48715205  0.62032735    -0.26700
C448        C  0.20239981  0.01184730  0.59807159     0.05500
C449        C  0.18770661  0.03873590  0.61571333    -0.31600
O450        O  0.17297145  0.04116839  0.74892265    -0.23400
C451        C  0.18181555  0.51709602  0.77140813    -0.03400
C452        C  0.18686866  0.48892820  0.75276668    -0.17800
H453        H  0.20188686  0.45594732  0.68596271     0.20200
H454        H  0.16611876  0.07099747  0.68220883     0.18600
H455        H  0.18516295  0.06234960  0.60490435     0.18500
H456        H  0.19856529  0.46677584  0.76374384     0.14400
C457        C  0.94882094  0.03416093  0.72420034     0.29800
C458        C  0.94935274  0.05397178  0.69334753    -0.36500
C459        C  0.94891405  0.03897183  0.65888210     0.15800
C460        C  0.94989615  0.50653423  0.65555650     0.21600
C461        C  0.95082866  0.48679228  0.68638213    -0.34700
C462        C  0.95057437  0.50175116  0.72077507     0.15700
O463        O  0.94323174  0.04284690  0.75878253    -0.26700
C464        C  0.93988216  0.01574367  0.77687008     0.05500
C465        C  0.94517769  0.48951011  0.75475913    -0.31600
O466        O  0.94431000  0.49759594  0.62091539    -0.23400
C467        C  0.94066790  0.52450142  0.60251587    -0.03400
C468        C  0.94388548  0.05099748  0.62454097    -0.17800
H469        H  0.94743900  0.07925446  0.69592123     0.20200
H470        H  0.94893584  0.46149874  0.68375572     0.18600
H471        H  0.94184409  0.46491873  0.76173942     0.18500
H472        H  0.94110027  0.07556045  0.61726222     0.14400
C473        C  0.32119180  0.17235586  0.51260485     0.29800
C474        C  0.27596267  0.12596914  0.01239156    -0.36500
C475        C  0.28093761  0.12384769  0.51026985     0.15800
C476        C  0.31995038  0.10738036  0.50880293     0.21600
C477        C  0.36111254  0.12279415  0.50968180    -0.34700
C478        C  0.36010344  0.15571225  0.51194564     0.15700
O479        O  0.32798623  0.20300710  0.51465847    -0.26700
C480        C  0.37187761  0.20613329  0.51568290     0.05500
C481        C  0.39352167  0.17736545  0.51420590    -0.31600
O482        O  0.31356124  0.07675343  0.50782222    -0.23400
C483        C  0.26985007  0.07320125  0.50911580    -0.03400
C484        C  0.24774431  0.10180658  0.51067874    -0.17800
H485        H  0.24523451  0.13866920  0.00937274     0.20200
H486        H  0.39184120  0.10994332  0.50917081     0.18600
H487        H  0.42867486  0.17298497  0.51446649     0.18500
H488        H  0.21257541  0.10577590  0.51215954     0.14400
C489        C  0.33046078  0.42361195  0.50072998     0.29800
C490        C  0.36970507  0.40813886  0.51008530    -0.36500
C491        C  0.36883619  0.37546104  0.50612376     0.15800
C492        C  0.33217097  0.35901724  0.49350982     0.21600
C493        C  0.29351431  0.37461122  0.48289364    -0.34700
C494        C  0.29425550  0.40726828  0.48716529     0.15700
O495        O  0.32153989  0.45325002  0.50769111    -0.26700
C496        C  0.27922720  0.45608087  0.49790404     0.05500
C497        C  0.26077762  0.42805030  0.48487069    -0.31600
O498        O  0.33727608  0.32834222  0.49560472    -0.23400
C499        C  0.37776733  0.32527693  0.50969403    -0.03400
C500        C  0.39904046  0.35376559  0.51636527    -0.17800
H501        H  0.39789934  0.42043464  0.52194298     0.20200
H502        H  0.26402867  0.36202925  0.47412105     0.18600
H503        H  0.20860008  0.39026213  0.02963659     0.18500
H504        H  0.43157494  0.35771431  0.52835979     0.14400
C505        C  0.31860994  0.36429232  0.85677738     0.29800
C506        C  0.27757619  0.37946968  0.85833244    -0.36500
C507        C  0.27834681  0.41235017  0.85639556     0.15800
C508        C  0.31700474  0.42925310  0.85357531     0.21600
C509        C  0.35829723  0.41394777  0.85168677    -0.34700
C510        C  0.35749020  0.38080632  0.85321503     0.15700
O511        O  0.32488144  0.33379703  0.85882869    -0.26700
C512        C  0.36841481  0.33006032  0.85638973     0.05500
C513        C  0.39061201  0.35865823  0.85251324    -0.31600
O514        O  0.30985150  0.45991763  0.85280980    -0.23400
C515        C  0.26597369  0.46267281  0.85476672    -0.03400
C516        C  0.24476355  0.43371141  0.85696433    -0.17800
H517        H  0.24706083  0.36644999  0.86099156     0.20200
H518        H  0.38884367  0.42696615  0.84929431     0.18600
H519        H  0.42576983  0.36259669  0.85040953     0.18500
H520        H  0.20978462  0.42903283  0.85911132     0.14400
C521        C  0.33357880  0.16943181  0.89230093     0.29800
C522        C  0.33638704  0.13745903  0.90140374    -0.36500
C523        C  0.30250623  0.11828033  0.88713041     0.15800
C524        C  0.26754877  0.13008858  0.86664872     0.21600
C525        C  0.26395278  0.16205664  0.85861842    -0.34700
C526        C  0.29841010  0.18101476  0.87181254     0.15700
O527        O  0.36565819  0.19015461  0.89618504    -0.26700
C528        C  0.35087482  0.21516107  0.87786476     0.05500
C529        C  0.30887930  0.21094601  0.86269095    -0.31600
O530        O  0.24131773  0.10801437  0.85374238    -0.23400
C531        C  0.25989795  0.08153054  0.86538703    -0.03400
C532        C  0.29796259  0.08641131  0.88671555    -0.17800
H533        H  0.36476627  0.12786785  0.91595974     0.20200
H534        H  0.23782322  0.17111406  0.84094482     0.18600
H535        H  0.29120219  0.22632998  0.84390791     0.18500
H536        H  0.31929721  0.06921098  0.89972722     0.14400
C537        C  0.44482941  0.24360832  0.72307195     0.29800
C538        C  0.44115776  0.22562813  0.69084742    -0.36500
C539        C  0.45247709  0.24091559  0.65829833     0.15800
C540        C  0.46652224  0.27179833  0.65775885     0.21600
C541        C  0.47163894  0.28941251  0.69015833    -0.34700
C542        C  0.46000413  0.27419135  0.72266226     0.15700
O543        O  0.43035101  0.23532900  0.75542889    -0.26700
C544        C  0.43642577  0.26078214  0.77622521     0.05500
C545        C  0.45526432  0.28568295  0.75739051    -0.31600
O546        O  0.46722640  0.28329250  0.62430638    -0.23400
C547        C  0.45415512  0.25947454  0.60302410    -0.03400
C548        C  0.44513591  0.23228408  0.62258720    -0.17800
H549        H  0.42725359  0.20217149  0.69084101     0.20200
H550        H  0.48060752  0.31403765  0.68968152     0.18600
H551        H  0.46152929  0.30934937  0.76704163     0.18500
H552        H  0.42962319  0.21093912  0.61247989     0.14400
C553        C  0.81775155  0.42963988  0.51056928     0.29800
C554        C  0.77645789  0.41411172  0.51113524    -0.36500
C555        C  0.77736206  0.38102886  0.50973100     0.15800
C556        C  0.81634556  0.36469382  0.50713970     0.21600
C557        C  0.85749821  0.38013669  0.50667889    -0.34700
C558        C  0.85663359  0.41304722  0.50889238     0.15700
O559        O  0.82463313  0.46029191  0.51244069    -0.26700
C560        C  0.86853756  0.46345424  0.51259202     0.05500
C561        C  0.89015640  0.43473561  0.51042605    -0.31600
O562        O  0.81004140  0.33410502  0.50585392    -0.23400
C563        C  0.76641162  0.33024148  0.50797093    -0.03400
C564        C  0.74421162  0.35879062  0.51064796    -0.17800
H565        H  0.74582502  0.42694053  0.51301538     0.20200
H566        H  0.89128382  0.32275403  0.00678013     0.18600
H567        H  0.92878220  0.38703011  0.00716746     0.18500
H568        H  0.70904832  0.36261522  0.51255250     0.14400
C569        C  0.84192018  0.08235716  0.97486942     0.29800
C570        C  0.84656384  0.11489477  0.97022878    -0.36500
C571        C  0.80940987  0.13292821  0.97818027     0.15800
C572        C  0.79891320  0.16951855  0.47350397     0.21600
C573        C  0.79576916  0.13766180  0.46385087    -0.34700
C574        C  0.83141680  0.11884365  0.47499816     0.15700
O575        O  0.87448480  0.06208628  0.97585497    -0.26700
C576        C  0.87510756  0.08242063  0.49541621     0.05500
C577        C  0.83557995  0.08694189  0.47600137    -0.31600
O578        O  0.76635207  0.18981646  0.47214848    -0.23400
C579        C  0.78243464  0.21481374  0.48990907    -0.03400
C580        C  0.80511183  0.16457525  0.98228891    -0.17800
H581        H  0.87804854  0.12555698  0.96403614     0.20200
H582        H  0.76600901  0.12779345  0.45153232     0.18600
H583        H  0.81209720  0.06956898  0.46608295     0.18500
H584        H  0.83016151  0.18229163  0.97806483     0.14400
C585        C  0.81885636  0.11158741  0.86521741     0.29800
C586        C  0.77783786  0.12685372  0.86802281    -0.36500
C587        C  0.77747040  0.15933586  0.86086682     0.15800
C588        C  0.81516658  0.17578473  0.85233289     0.21600
C589        C  0.85624539  0.16046251  0.84944178    -0.34700
C590        C  0.85646762  0.12780495  0.85597007     0.15700
O591        O  0.82604840  0.08120977  0.86938967    -0.26700
C592        C  0.86888042  0.07744465  0.86254569     0.05500
C593        C  0.88954892  0.10582998  0.85404057    -0.31600
O594        O  0.80740600  0.20605517  0.84710478    -0.23400
C595        C  0.76398607  0.20912788  0.85180375    -0.03400
C596        C  0.74365275  0.18068986  0.86029538    -0.17800
H597        H  0.74808937  0.11414365  0.87477723     0.20200
H598        H  0.88586938  0.17308300  0.84215063     0.18600
H599        H  0.92359975  0.10968283  0.84680811     0.18500
H600        H  0.70918278  0.17646764  0.86585220     0.14400
C601        C  0.80691327  0.36127677  0.87162674     0.29800
C602        C  0.84619675  0.37639089  0.88250464    -0.36500
C603        C  0.84575078  0.40930646  0.88085976     0.15800
C604        C  0.80933989  0.42627305  0.86933384     0.21600
C605        C  0.76986657  0.41118198  0.85905305    -0.34700
C606        C  0.77031012  0.37830477  0.86058303     0.15700
O607        O  0.80052934  0.33065850  0.86905193    -0.26700
C608        C  0.75922632  0.32814136  0.85624034     0.05500
C609        C  0.73891025  0.35704167  0.85059243    -0.31600
O610        O  0.81791529  0.45649229  0.86564130    -0.23400
C611        C  0.86021030  0.45917570  0.87566098    -0.03400
C612        C  0.87912518  0.43032721  0.88510079    -0.17800
H613        H  0.87556613  0.36339800  0.89030181     0.20200
H614        H  0.74140401  0.42409946  0.84898629     0.18600
H615        H  0.70586741  0.36157034  0.84010072     0.18500
H616        H  0.91347524  0.42493113  0.89068500     0.14400
C617        C  0.68925377  0.24493359  0.64509354     0.29800
C618        C  0.69257466  0.22707597  0.67742015    -0.36500
C619        C  0.68030345  0.24220377  0.70979336     0.15800
C620        C  0.66547632  0.27282143  0.71008107     0.21600
C621        C  0.66030181  0.29021125  0.67745960    -0.34700
C622        C  0.67316146  0.27519110  0.64512718     0.15700
O623        O  0.70514689  0.23693815  0.61312974    -0.26700
C624        C  0.69915759  0.26222389  0.59210755     0.05500
C625        C  0.67880501  0.28674447  0.61043961    -0.31600
O626        O  0.66482166  0.28454384  0.74349415    -0.23400
C627        C  0.67872897  0.26113251  0.76500176    -0.03400
C628        C  0.68810187  0.23396472  0.74558328    -0.17800
H629        H  0.70730520  0.20395298  0.67771715     0.20200
H630        H  0.65079764  0.31468727  0.67773234     0.18600
H631        H  0.67205013  0.31023473  0.60054138     0.18500
H632        H  0.70448274  0.21305485  0.75574866     0.14400
C633        C  0.74689158  0.76413674  0.36427141     0.86500
C634        C  0.70489295  0.76130801  0.38599063    -0.53700
C635        C  0.67836906  0.73672583  0.37639526     0.09400
C636        C  0.69880997  0.71496485  0.34682437     0.20400
C637        C  0.77087352  0.73298472  0.37062018    -0.54400
C638        C  0.74646841  0.70685743  0.36141698     0.09500
C639        C  0.73166443  0.76343011  0.32398310    -0.54000
C640        C  0.70693777  0.73772729  0.31439165     0.10100
H641        H  0.69545934  0.77853371  0.40640316     0.14600
H642        H  0.67799640  0.69437847  0.33924745     0.00400
H643        H  0.80485020  0.73180335  0.38058781     0.14900
H644        H  0.74050113  0.78159685  0.30447283     0.14700
C645        C  0.74201088  0.69793011  0.00901574     0.86500
C646        C  0.70892026  0.74103573  0.48370935    -0.53700
C647        C  0.68102951  0.76379036  0.49521786     0.09400
C648        C  0.69985487  0.74785994  0.03060965     0.20400
C649        C  0.77272980  0.77358716  0.49651716    -0.54400
C650        C  0.74685957  0.75487870  0.01578867     0.09500
C651        C  0.72987078  0.69712368  0.04951043    -0.54000
C652        C  0.70792547  0.72304807  0.06136159     0.10100
H653        H  0.69902609  0.72344063  0.46349862     0.14600
H654        H  0.68171525  0.76896127  0.03974290     0.00400
H655        H  0.80515650  0.77716942  0.48496538     0.14900
H656        H  0.73829791  0.67753592  0.06741195     0.14700
O657        O  0.61363511  0.76411571  0.39143458    -0.72900
O658        O  0.52142576  0.78116163  0.46524098    -0.73900
O659        O  0.61688608  0.78407121  0.46423190    -0.62500
O660        O  0.51786974  0.76431227  0.39151153    -0.70900
O661        O  0.52059597  0.71425195  0.40825956    -0.70500
O662        O  0.61696784  0.73405349  0.48157390    -0.61700
O663        O  0.52139970  0.73109954  0.48218369    -0.74200
O664        O  0.61728705  0.71414733  0.40862289    -0.73000
Cu665      Cu  0.56725735  0.77508638  0.42753023     1.04600
Cu666      Cu  0.56898125  0.72162749  0.44573445     1.04300
C667        C  0.63300063  0.73740473  0.39096841     0.93300
C668        C  0.50479044  0.75852807  0.48358671     0.92400
C669        C  0.63479783  0.76141246  0.48180001     0.84600
C670        C  0.50190090  0.73657868  0.39023856     0.90800
C671        C  0.39098268  0.70115431  0.36067689     0.86500
C672        C  0.43535770  0.70440492  0.38048447    -0.53700
C673        C  0.45914871  0.73023928  0.37103951     0.09400
C674        C  0.43510585  0.75124680  0.34198267     0.20400
C675        C  0.36637030  0.73179126  0.36818683    -0.54400
C676        C  0.38895252  0.75825289  0.35832074     0.09500
C677        C  0.40164849  0.70236923  0.31999556    -0.54000
C678        C  0.42491413  0.72825854  0.30972668     0.10100
H679        H  0.44677875  0.68749413  0.40088857     0.14600
H680        H  0.45398881  0.77246779  0.33394167     0.00400
H681        H  0.33344891  0.73265942  0.37931646     0.14900
H682        H  0.39185511  0.68390965  0.30086204     0.14700
C683        C  0.38748200  0.76463942  0.00539122     0.86500
C684        C  0.44041803  0.79091647  0.49620218    -0.53700
C685        C  0.46386528  0.76446386  0.50375736     0.09400
C686        C  0.43600466  0.71655910  0.02506229     0.20400
C687        C  0.37178214  0.76487322  0.51151666    -0.54400
C688        C  0.38885261  0.70759007  0.01004691     0.09500
C689        C  0.40154966  0.76492323  0.04587042    -0.54000
C690        C  0.42653492  0.73986458  0.05665096     0.10100
H691        H  0.45034235  0.80815760  0.47591922     0.14600
H692        H  0.45688439  0.69638803  0.03361722     0.00400
H693        H  0.33764244  0.76523902  0.50187716     0.14900
H694        H  0.39169943  0.78332132  0.06467029     0.14700
C695        C  0.89744624  0.95451382  0.35433550     0.86500
C696        C  0.93824146  0.95938982  0.37846836    -0.53700
C697        C  0.96291224  0.48535929  0.37102221     0.09400
C698        C  0.94268624  0.50527981  0.33912843     0.20400
C699        C  0.87064324  0.98483310  0.35797855    -0.54400
C700        C  0.89400882  0.51168654  0.35033848     0.09500
C701        C  0.91406745  0.95496054  0.31519980    -0.54000
C702        C  0.93861107  0.48135487  0.30694865     0.10100
H703        H  0.94734200  0.94311605  0.40031390     0.14600
H704        H  0.96190877  0.52670657  0.33242571     0.00400
H705        H  0.83671885  0.48491313  0.36624307     0.14900
H706        H  0.90689032  0.93607453  0.29591170     0.14700
C707        C  0.88426454  0.50839245  0.00158475     0.86500
C708        C  0.93965242  0.54664548  0.49126490    -0.53700
C709        C  0.96138454  0.02100821  0.50253208     0.09400
C710        C  0.93580332  0.96410987  0.02533061     0.20400
C711        C  0.86929568  0.52115834  0.50220041    -0.54400
C712        C  0.89090161  0.95199694  0.00820696     0.09500
C713        C  0.89497822  0.51096003  0.04261766    -0.54000
C714        C  0.92167454  0.98802989  0.05503795     0.10100
H715        H  0.95202030  0.56234791  0.47025423     0.14600
H716        H  0.95810697  0.94543340  0.03595349     0.00400
H717        H  0.83598655  0.02056771  0.48846008     0.14900
H718        H  0.88183590  0.52967716  0.05936987     0.14700
O719        O  0.02058518  0.96855766  0.41006626    -0.72900
O720        O  0.11406411  0.98397242  0.48629107    -0.73900
O721        O  0.01813172  0.98515060  0.48407149    -0.62500
O722        O  0.11647888  0.96538076  0.41324569    -0.70900
O723        O  0.11680187  0.51526771  0.39626025    -0.70500
O724        O  0.02431792  0.53511505  0.46876580    -0.61700
O725        O  0.12007722  0.53368060  0.46943823    -0.74200
O726        O  0.02124219  0.51870608  0.39460550    -0.73000
Cu727      Cu  0.06704331  0.97402557  0.44899187     1.04600
Cu728      Cu  0.07053034  0.52738660  0.43178659     1.04300
C729        C  0.00385423  0.99133930  0.39162920     0.93300
C730        C  0.13473109  0.01025938  0.48659489     0.92400
C731        C  0.00388697  0.01330769  0.48528391     0.84600
C732        C  0.13411815  0.98816356  0.39597120     0.90800
C733        C  0.25305251  0.51036257  0.37869044     0.86500
C734        C  0.20886321  0.50899305  0.39727897    -0.53700
C735        C  0.18027528  0.98641087  0.38370091     0.09400
C736        C  0.20058959  0.96579474  0.35299302     0.20400
C737        C  0.27267413  0.47776486  0.38332194    -0.54400
C738        C  0.24602291  0.95410648  0.36897473     0.09500
C739        C  0.24170562  0.51339509  0.33780891    -0.54000
C740        C  0.21372846  0.99048522  0.32372399     0.10100
H741        H  0.19938919  0.52577218  0.41817624     0.14600
H742        H  0.17841079  0.94694758  0.34237096     0.00400
H743        H  0.30490593  0.97406736  0.39409779     0.14900
H744        H  0.25408746  0.53250000  0.32105082     0.14700
C745        C  0.23956453  0.95405952  0.02432749     0.86500
C746        C  0.20642177  0.98572971  0.48952191    -0.53700
C747        C  0.18155179  0.50994289  0.50079429     0.09400
C748        C  0.19655030  0.50570028  0.03856336     0.20400
C749        C  0.27329253  0.01587759  0.49950271    -0.54400
C750        C  0.24435230  0.51162004  0.02536956     0.09500
C751        C  0.22469635  0.95633141  0.06400484    -0.54000
C752        C  0.20262240  0.48352691  0.07195349     0.10100
H753        H  0.19457267  0.96865771  0.46949562     0.14600
H754        H  0.17780386  0.52735751  0.04472760     0.00400
H755        H  0.30630129  0.51792343  0.48731292     0.14900
H756        H  0.23209590  0.93845344  0.08449121     0.14700
C757        C  0.17599359  0.97748448  0.16421461     0.29800
C758        C  0.16954512  0.96055563  0.19677156    -0.36500
C759        C  0.17996313  0.97638362  0.22955037     0.15800
C760        C  0.19713786  0.50673427  0.23046002     0.21600
C761        C  0.20223507  0.52414834  0.19798920    -0.34700
C762        C  0.19152021  0.50844120  0.16510677     0.15700
O763        O  0.17484810  0.96559119  0.13088244    -0.26700
C764        C  0.18843346  0.48949493  0.10978369     0.05500
C765        C  0.19835615  0.51675202  0.12937609    -0.31600
O766        O  0.20936150  0.51570209  0.26371666    -0.23400
C767        C  0.19990121  0.99100453  0.28448517    -0.03400
C768        C  0.18210977  0.96576468  0.26495218    -0.17800
H769        H  0.15977696  0.93607922  0.19644755     0.20200
H770        H  0.21593896  0.54766430  0.19825884     0.18600
H771        H  0.21341918  0.53809392  0.11930395     0.18500
H772        H  0.17465210  0.94241982  0.27485271     0.14400
C773        C  0.95780288  0.50293986  0.21584796     0.29800
C774        C  0.94994277  0.52140338  0.18454734    -0.36500
C775        C  0.95023210  0.50560805  0.15071033     0.15800
C776        C  0.95660068  0.97342480  0.14657712     0.21600
C777        C  0.96556706  0.95504902  0.17783386    -0.34700
C778        C  0.96500968  0.97081546  0.21177138     0.15700
O779        O  0.95092357  0.51159230  0.25016668    -0.26700
C780        C  0.95573880  0.48518038  0.26930587     0.05500
C781        C  0.96467775  0.95912071  0.24642785    -0.31600
O782        O  0.94980467  0.96298997  0.11263747    -0.23400
C783        C  0.93757559  0.98851829  0.09394432    -0.03400
C784        C  0.93799108  0.51571214  0.11673589    -0.17800
H785        H  0.94070351  0.54586366  0.18658473     0.20200
H786        H  0.96946525  0.92983547  0.17607914     0.18600
H787        H  0.96674283  0.93464528  0.25430627     0.18500
H788        H  0.92774161  0.53919935  0.10922264     0.14400
C789        C  0.31759754  0.64162108  0.01166124     0.29800
C790        C  0.28015725  0.65697093  0.51162136    -0.36500
C791        C  0.27743983  0.59332874  0.01634668     0.15800
C792        C  0.31639056  0.57698507  0.02067553     0.21600
C793        C  0.35752972  0.59257176  0.02123952    -0.34700
C794        C  0.35650432  0.62539312  0.01677261     0.15700
O795        O  0.32415344  0.67212491  0.00803451    -0.26700
C796        C  0.36788315  0.67579813  0.01111234     0.05500
C797        C  0.38972722  0.64739094  0.01669223    -0.31600
O798        O  0.30983960  0.54643986  0.02423088    -0.23400
C799        C  0.26603943  0.54300711  0.02260388    -0.03400
C800        C  0.24414986  0.57150983  0.01785818    -0.17800
H801        H  0.24938092  0.66974677  0.51229259     0.20200
H802        H  0.38821961  0.57996629  0.02505965     0.18600
H803        H  0.42480243  0.64348111  0.02030173     0.18500
H804        H  0.20898017  0.57552858  0.01529961     0.14400
C805        C  0.30856604  0.89083904  0.99991199     0.29800
C806        C  0.34751328  0.87592827  0.98961441    -0.36500
C807        C  0.34666383  0.84301898  0.99039198     0.15800
C808        C  0.31005386  0.82585974  0.00032188     0.21600
C809        C  0.27083441  0.84075596  0.00988286    -0.34700
C810        C  0.27183873  0.87363001  0.00953059     0.15700
O811        O  0.30288884  0.92136552  0.00374204    -0.26700
C812        C  0.26201998  0.92359689  0.01610110     0.05500
C813        C  0.24121453  0.89465328  0.02012440    -0.31600
O814        O  0.31845321  0.79565524  0.00394692    -0.23400
C815        C  0.36081815  0.79323470  0.99554116    -0.03400
C816        C  0.37997149  0.82215630  0.98720844    -0.17800
H817        H  0.37708227  0.88903718  0.98326178     0.20200
H818        H  0.24235250  0.82768325  0.01897904     0.18600
H819        H  0.22607699  0.92240551  0.47808086     0.18500
H820        H  0.41445088  0.82759858  0.98314233     0.14400
C821        C  0.31695530  0.82331097  0.36122156     0.29800
C822        C  0.27571646  0.83865451  0.35985924    -0.36500
C823        C  0.27673729  0.87166745  0.36210820     0.15800
C824        C  0.31579771  0.88811385  0.36606424     0.21600
C825        C  0.35693856  0.87285462  0.36719193    -0.34700
C826        C  0.35594178  0.83997807  0.36431289     0.15700
O827        O  0.32362620  0.79273101  0.35916542    -0.26700
C828        C  0.36748934  0.78963427  0.36038578     0.05500
C829        C  0.38935132  0.81836684  0.36358469    -0.31600
O830        O  0.30950191  0.91858375  0.36860782    -0.23400
C831        C  0.26581167  0.92219733  0.36603172    -0.03400
C832        C  0.24354723  0.89367795  0.36160972    -0.17800
H833        H  0.24501725  0.82572930  0.35707241     0.20200
H834        H  0.38763290  0.88579469  0.36997627     0.18600
H835        H  0.42455062  0.82267888  0.36535986     0.18500
H836        H  0.20831534  0.88969190  0.35926480     0.14400
C837        C  0.36210555  0.62241418  0.37522754     0.29800
C838        C  0.36703472  0.59009997  0.37068583    -0.36500
C839        C  0.33329590  0.57148864  0.38452984     0.15800
C840        C  0.29711416  0.58380801  0.40185948     0.21600
C841        C  0.29279234  0.61628435  0.40733249    -0.34700
C842        C  0.32642352  0.63500808  0.39291752     0.15700
O843        O  0.38826419  0.64390473  0.36186387    -0.26700
C844        C  0.36928545  0.67081903  0.37076254     0.05500
C845        C  0.33054661  0.66682800  0.39028722    -0.31600
O846        O  0.26572666  0.56276763  0.40608452    -0.23400
C847        C  0.28217748  0.53676259  0.39144583    -0.03400
C848        C  0.32447234  0.54075716  0.37826851    -0.17800
H849        H  0.39391293  0.58029238  0.35529741     0.20200
H850        H  0.26376598  0.62632922  0.41952837     0.18600
H851        H  0.30855693  0.68445714  0.40086255     0.18500
H852        H  0.34305473  0.52462058  0.36163523     0.14400
C853        C  0.44676306  0.71775430  0.21630817     0.29800
C854        C  0.44740895  0.70033050  0.18349638    -0.36500
C855        C  0.44812133  0.71779975  0.15083836     0.15800
C856        C  0.44808772  0.75019758  0.15075672     0.21600
C857        C  0.44846516  0.76759117  0.18359056    -0.34700
C858        C  0.44780094  0.75013961  0.21624017     0.15700
O859        O  0.44083778  0.70621823  0.24935498    -0.26700
C860        C  0.43843750  0.73138251  0.27101260     0.05500
C861        C  0.44302963  0.75947753  0.25194474    -0.31600
O862        O  0.44311350  0.76184505  0.11748395    -0.23400
C863        C  0.44042448  0.73674885  0.09568652    -0.03400
C864        C  0.44377026  0.70857084  0.11490755    -0.17800
H865        H  0.44503212  0.67495878  0.18341044     0.20200
H866        H  0.44687067  0.79298081  0.18358088     0.18600
H867        H  0.43961062  0.78315501  0.26229547     0.18500
H868        H  0.43951241  0.68495529  0.10437388     0.14400
C869        C  0.82148624  0.88518828  0.01202786     0.29800
C870        C  0.78034498  0.86976185  0.01303797    -0.36500
C871        C  0.78124405  0.83679904  0.01391994     0.15800
C872        C  0.82007190  0.82009523  0.01319243     0.21600
C873        C  0.86145590  0.83560204  0.01242606    -0.34700
C874        C  0.86059148  0.86876904  0.01219179     0.15700
O875        O  0.82765528  0.91581910  0.01084195    -0.26700
C876        C  0.87138781  0.91968732  0.01063875     0.05500
C877        C  0.89378791  0.89105377  0.01168012    -0.31600
O878        O  0.81306561  0.78937954  0.01361113    -0.23400
C879        C  0.76916143  0.78628213  0.01509575    -0.03400
C880        C  0.74772962  0.81515038  0.01542657    -0.17800
H881        H  0.74964538  0.88266554  0.01321003     0.20200
H882        H  0.88762590  0.86756427  0.50355121     0.18600
H883        H  0.92454900  0.93082939  0.50778384     0.18500
H884        H  0.71261403  0.81958000  0.01614656     0.14400
C885        C  0.86840201  0.63070134  0.49359246     0.29800
C886        C  0.87224640  0.66265720  0.50180757    -0.36500
C887        C  0.83582932  0.68107898  0.49229778     0.15800
C888        C  0.77045195  0.61938859  0.99054826     0.21600
C889        C  0.76552151  0.58684579  0.99445754    -0.34700
C890        C  0.80285445  0.56885389  0.98716526     0.15700
O891        O  0.89547615  0.60890996  0.50549199    -0.26700
C892        C  0.85618850  0.53513061  0.98800247     0.05500
C893        C  0.81154422  0.53824464  0.99518453    -0.31600
O894        O  0.74207896  0.64056269  0.00130181    -0.23400
C895        C  0.76306521  0.66777187  0.99699025    -0.03400
C896        C  0.82585001  0.71073122  0.50287405    -0.17800
H897        H  0.90004353  0.67194839  0.51753388     0.20200
H898        H  0.73586289  0.57653837  0.00545832     0.18600
H899        H  0.78997709  0.52138847  0.00809020     0.18500
H900        H  0.84552172  0.72644898  0.51994621     0.14400
C901        C  0.82120093  0.57674643  0.35243001     0.29800
C902        C  0.78002772  0.59206461  0.34956020    -0.36500
C903        C  0.78008916  0.62470659  0.35598054     0.15800
C904        C  0.81807250  0.64103219  0.36512303     0.21600
C905        C  0.85928943  0.62572739  0.36800878    -0.34700
C906        C  0.85934295  0.59315705  0.36092925     0.15700
O907        O  0.82850460  0.54643481  0.34738150    -0.26700
C908        C  0.87209277  0.54314925  0.35211930     0.05500
C909        C  0.89302337  0.57160053  0.36051582    -0.31600
O910        O  0.81086518  0.67146562  0.36907071    -0.23400
C911        C  0.76763354  0.67502644  0.36218763    -0.03400
C912        C  0.74681167  0.64652974  0.35391845    -0.17800
H913        H  0.75004644  0.57942533  0.34235249     0.20200
H914        H  0.88935180  0.63845065  0.37474355     0.18600
H915        H  0.92773947  0.57566719  0.36631883     0.18500
H916        H  0.71247037  0.64249058  0.34665589     0.14400
C917        C  0.82431003  0.82609857  0.37360426     0.29800
C918        C  0.86481342  0.84114077  0.36806092    -0.36500
C919        C  0.86412975  0.87404357  0.36918247     0.15800
C920        C  0.82647560  0.89113679  0.37588629     0.21600
C921        C  0.78621728  0.87606636  0.38226187    -0.34700
C922        C  0.78674244  0.84318182  0.38050965     0.15700
O923        O  0.81612084  0.79585721  0.36905693    -0.26700
C924        C  0.77277572  0.79345170  0.37356287     0.05500
C925        C  0.75291200  0.82232360  0.38032537    -0.31600
O926        O  0.83259744  0.92170579  0.37240646    -0.23400
C927        C  0.87470880  0.92411831  0.36321960    -0.03400
C928        C  0.89591113  0.89523315  0.36109070    -0.17800
H929        H  0.89421181  0.82820161  0.36118565     0.20200
H930        H  0.75605590  0.88909471  0.38617716     0.18600
H931        H  0.71809526  0.82757656  0.38212084     0.18500
H932        H  0.92953949  0.89062365  0.35319309     0.14400
C933        C  0.68849235  0.71201980  0.15553419     0.29800
C934        C  0.69013868  0.69517292  0.18878585    -0.36500
C935        C  0.68634450  0.71295727  0.22104910     0.15800
C936        C  0.68141356  0.74515251  0.22043418     0.21600
C937        C  0.67846692  0.76185924  0.18714076    -0.34700
C938        C  0.68230374  0.74408238  0.15488892     0.15700
O939        O  0.69647386  0.70057175  0.12271858    -0.26700
C940        C  0.69508850  0.72547151  0.10047362     0.05500
C941        C  0.68594502  0.75322722  0.11900556    -0.31600
O942        O  0.68512744  0.75766774  0.25345539    -0.23400
C943        C  0.69187825  0.73325459  0.27576044    -0.03400
C944        C  0.69238585  0.70471341  0.25714165    -0.17800
H945        H  0.69657384  0.67018972  0.18951630     0.20200
H946        H  0.67612807  0.78721256  0.18652334     0.18600
H947        H  0.68532003  0.77688858  0.10817178     0.18500
H948        H  0.70064678  0.68179857  0.26810436     0.14400
C949        C  0.73671486  0.79734295  0.85063455     0.86500
C950        C  0.69614183  0.79321672  0.87422503    -0.53700
C951        C  0.67234792  0.76652970  0.86729411     0.09400
C952        C  0.69315172  0.74532456  0.83752245     0.20400
C953        C  0.76438072  0.76760321  0.85700137    -0.54400
C954        C  0.74201529  0.74013096  0.85030542     0.09500
C955        C  0.71928045  0.79458386  0.81117960    -0.54000
C956        C  0.69657072  0.76750082  0.80395040     0.10100
H957        H  0.68666901  0.81053963  0.89449020     0.14600
H958        H  0.67450278  0.72333267  0.83166744     0.00400
H959        H  0.79885641  0.76820079  0.86572779     0.14900
H960        H  0.72499056  0.81245877  0.79048839     0.14700
C961        C  0.75373514  0.74100289  0.50286908     0.86500
C962        C  0.69855947  0.70330424  0.98853291    -0.53700
C963        C  0.67566677  0.72900818  0.99955369     0.09400
C964        C  0.70205704  0.78612760  0.52462539     0.20400
C965        C  0.76841720  0.72852315  0.00450363    -0.54400
C966        C  0.74690942  0.79766492  0.50832871     0.09500
C967        C  0.74356823  0.73965265  0.54376036    -0.54000
C968        C  0.71607496  0.76280154  0.55547229     0.10100
H969        H  0.68692043  0.68775922  0.96669708     0.14600
H970        H  0.67983412  0.80511279  0.53379136     0.00400
H971        H  0.80149880  0.72948523  0.99373573     0.14900
H972        H  0.75582478  0.72104758  0.56161178     0.14700
O973        O  0.61464756  0.78291170  0.90633117    -0.72900
O974        O  0.52212501  0.76497540  0.98044603    -0.73900
O975        O  0.61817073  0.76461124  0.97991061    -0.62500
O976        O  0.51792296  0.78524475  0.90766911    -0.70900
O977        O  0.51741948  0.73549483  0.88942388    -0.70500
O978        O  0.61363218  0.71486892  0.96213396    -0.61700
O979        O  0.51714299  0.71531989  0.96221049    -0.74200
O980        O  0.61375980  0.73309563  0.88859213    -0.73000
Cu981      Cu  0.56842334  0.77614240  0.94415339     1.04600
Cu982      Cu  0.56556647  0.72301105  0.92497730     1.04300
C983        C  0.63110948  0.76047012  0.88767010     0.93300
C984        C  0.50215119  0.73839746  0.98052342     0.92400
C985        C  0.63316884  0.73662375  0.98059320     0.84600
C986        C  0.49955358  0.76270035  0.88985701     0.90800
C987        C  0.38063369  0.74132325  0.86746880     0.86500
C988        C  0.42461200  0.74235105  0.88816943    -0.53700
C989        C  0.45309672  0.76496599  0.87642093     0.09400
C990        C  0.43328697  0.78593496  0.84516081     0.20400
C991        C  0.36129354  0.77396087  0.87140582    -0.54400
C992        C  0.38764008  0.79772576  0.85922150     0.09500
C993        C  0.39287618  0.73849925  0.82717369    -0.54000
C994        C  0.42059245  0.76143991  0.81518277     0.10100
H995        H  0.43372173  0.72525742  0.90912446     0.14600
H996        H  0.45579745  0.80474077  0.83567388     0.00400
H997        H  0.32820065  0.77772340  0.88147045     0.14900
H998        H  0.38107962  0.71938528  0.80974898     0.14700
C999        C  0.39918569  0.79475339  0.51863593     0.86500
C1000       C  0.43014919  0.76204468  0.98452211    -0.53700
C1001       C  0.45674402  0.73789568  0.99509913     0.09400
C1002       C  0.44236675  0.74321957  0.53311136     0.20400
C1003       C  0.36421864  0.73309080  0.99954240    -0.54400
C1004       C  0.39407984  0.73762158  0.51917052     0.09500
C1005       C  0.41492920  0.79222005  0.55854090    -0.54000
C1006       C  0.43751260  0.76539113  0.56635600     0.10100
H1007       H  0.43977187  0.77890502  0.96373040     0.14600
H1008       H  0.46113894  0.72151678  0.53957098     0.00400
H1009       H  0.33038415  0.73121905  0.98931883     0.14900
H1010       H  0.40840573  0.81009112  0.57902303     0.14700
C1011       C  0.88715060  0.98824186  0.86632433     0.86500
C1012       C  0.93053520  0.99059945  0.88751974    -0.53700
C1013       C  0.95741402  0.51391082  0.87766742     0.09400
C1014       C  0.93615795  0.53589753  0.84803427     0.20400
C1015       C  0.86470568  0.01983228  0.87234591    -0.54400
C1016       C  0.88980153  0.54514516  0.86318323     0.09500
C1017       C  0.89964525  0.98823607  0.82598090    -0.54000
C1018       C  0.92516156  0.51294969  0.81598542     0.10100
H1019       H  0.94050573  0.97361378  0.90832768     0.14600
H1020       H  0.95737524  0.55595948  0.84001049     0.00400
H1021       H  0.83174570  0.52151561  0.88350913     0.14900
H1022       H  0.88856310  0.96989804  0.80719965     0.14700
C1023       C  0.89529098  0.55167049  0.50882914     0.86500
C1024       C  0.92877416  0.50783008  0.98343096    -0.53700
C1025       C  0.95660666  0.98579198  0.99572104     0.09400
C1026       C  0.93600226  0.00198038  0.53185998     0.20400
C1027       C  0.86523864  0.47549561  0.99629884    -0.54400
C1028       C  0.88977629  0.99502438  0.51387329     0.09500
C1029       C  0.90522132  0.55212670  0.54998220    -0.54000
C1030       C  0.92665333  0.02672216  0.56215068     0.10100
H1031       H  0.93819808  0.52486765  0.96273159     0.14600
H1032       H  0.95372303  0.98084720  0.54208706     0.00400
H1033       H  0.83220687  0.97164683  0.98266963     0.14900
H1034       H  0.89533835  0.57152408  0.56729544     0.14700
O1035       O  0.02177500  0.98651890  0.89306172    -0.72900
O1036       O  0.11600191  0.96794422  0.96798239    -0.73900
O1037       O  0.02021761  0.96563816  0.96575073    -0.62500
O1038       O  0.11709047  0.98552719  0.89424264    -0.70900
O1039       O  0.11583152  0.53514384  0.91205969    -0.70500
O1040       O  0.02091603  0.51546639  0.98379634    -0.61700
O1041       O  0.11671838  0.51790633  0.98604305    -0.74200
O1042       O  0.01957187  0.53591478  0.91082514    -0.73000
Cu1043     Cu  0.06895222  0.97473587  0.92969665     1.04600
Cu1044     Cu  0.06841336  0.52785761  0.94880193     1.04300
C1045       C  0.00307643  0.01348122  0.89234719     0.93300
C1046       C  0.13294162  0.99027239  0.98722696     0.92400
C1047       C  0.00274227  0.98819280  0.98325389     0.84600
C1048       C  0.13324677  0.01318601  0.89330937     0.90800
C1049       C  0.23788790  0.55078329  0.85732886     0.86500
C1050       C  0.19739011  0.54617858  0.88058810    -0.53700
C1051       C  0.17391415  0.01977524  0.87267014     0.09400
C1052       C  0.19418186  0.99934602  0.84188530     0.20400
C1053       C  0.26561726  0.52090054  0.86249376    -0.54400
C1054       C  0.24307745  0.99356000  0.85408535     0.09500
C1055       C  0.22058454  0.54916923  0.81775440    -0.54000
C1056       C  0.19776510  0.02237822  0.80918802     0.10100
H1057       H  0.18797938  0.56295665  0.90150524     0.14600
H1058       H  0.17515480  0.97769480  0.83520510     0.00400
H1059       H  0.30038090  0.02078664  0.87028783     0.14900
H1060       H  0.22665898  0.56752296  0.79771475     0.14700
C1061       C  0.25182088  0.98432804  0.50796837     0.86500
C1062       C  0.19764062  0.95774601  0.00123495    -0.53700
C1063       C  0.17461439  0.48440080  0.00869011     0.09400
C1064       C  0.20527654  0.53247618  0.52823626     0.20400
C1065       C  0.26633084  0.98421554  0.01784487    -0.54400
C1066       C  0.24998728  0.54141809  0.51019655     0.09500
C1067       C  0.24285753  0.98522821  0.54906780    -0.54000
C1068       C  0.21889020  0.51022575  0.56011428     0.10100
H1069       H  0.18747684  0.94060274  0.98059498     0.14600
H1070       H  0.18489356  0.55270608  0.53675803     0.00400
H1071       H  0.30078883  0.48444611  0.00908075     0.14900
H1072       H  0.25430622  0.96705233  0.56787457     0.14700
C1073       C  0.19074145  0.99729055  0.65182139     0.29800
C1074       C  0.19053973  0.98006804  0.68466510    -0.36500
C1075       C  0.18114309  0.99703420  0.71649153     0.15800
C1076       C  0.17299119  0.52894219  0.71600788     0.21600
C1077       C  0.17174926  0.54599007  0.68293120    -0.34700
C1078       C  0.18196556  0.52910470  0.65116249     0.15700
O1079       O  0.20406512  0.98683835  0.61997955    -0.26700
C1080       C  0.20376898  0.51211421  0.59837619     0.05500
C1081       C  0.18884410  0.53896882  0.61596293    -0.31600
O1082       O  0.17307240  0.54121757  0.74914360    -0.23400
C1083       C  0.18168156  0.01705186  0.77119427    -0.03400
C1084       C  0.18626488  0.98881538  0.75257382    -0.17800
H1085       H  0.20027366  0.95564462  0.68567110     0.20200
H1086       H  0.16654985  0.57112499  0.68241848     0.18600
H1087       H  0.18596075  0.56253822  0.60507755     0.18500
H1088       H  0.19779393  0.96661348  0.76353477     0.14400
C1089       C  0.94987759  0.53396424  0.72496019     0.29800
C1090       C  0.95026832  0.55376045  0.69411473    -0.36500
C1091       C  0.95001235  0.53875891  0.65967267     0.15800
C1092       C  0.94841513  0.00674592  0.65476927     0.21600
C1093       C  0.94910575  0.98700287  0.68558012    -0.34700
C1094       C  0.94913260  0.00195245  0.71997342     0.15700
O1095       O  0.94379282  0.54265772  0.75945705    -0.26700
C1096       C  0.94046673  0.51557019  0.77754474     0.05500
C1097       C  0.94403426  0.98970113  0.75397532    -0.31600
O1098       O  0.94291312  0.99781471  0.62012459    -0.23400
C1099       C  0.93972204  0.02472078  0.60169144    -0.03400
C1100       C  0.94464051  0.55077643  0.62537344    -0.17800
H1101       H  0.94794973  0.57902582  0.69667383     0.20200
H1102       H  0.94699689  0.96171783  0.68294622     0.18600
H1103       H  0.94067535  0.96510690  0.76092657     0.18500
H1104       H  0.94148352  0.57532787  0.61814939     0.14400
C1105       C  0.32137521  0.67250564  0.51277616     0.29800
C1106       C  0.27642569  0.62609195  0.01140227    -0.36500
C1107       C  0.28129129  0.62393112  0.51020889     0.15800
C1108       C  0.32038616  0.60751454  0.50929298     0.21600
C1109       C  0.36149021  0.62298743  0.51060334    -0.34700
C1110       C  0.36034644  0.65590840  0.51267684     0.15700
O1111       O  0.32806562  0.70317408  0.51474754    -0.26700
C1112       C  0.37194390  0.70635214  0.51627518     0.05500
C1113       C  0.39367741  0.67760346  0.51521493    -0.31600
O1114       O  0.31411359  0.57687577  0.50838229    -0.23400
C1115       C  0.27038980  0.57326648  0.50917248    -0.03400
C1116       C  0.24815719  0.60183963  0.51034067    -0.17800
H1117       H  0.24571945  0.63872601  0.00780561     0.20200
H1118       H  0.39227015  0.61017860  0.51053825     0.18600
H1119       H  0.42883892  0.67325359  0.51592844     0.18500
H1120       H  0.21294232  0.60575319  0.51138867     0.14400
C1121       C  0.32981725  0.92369321  0.50070279     0.29800
C1122       C  0.36906630  0.90832506  0.51028272    -0.36500
C1123       C  0.36835341  0.87563609  0.50649740     0.15800
C1124       C  0.33184003  0.85907872  0.49379191     0.21600
C1125       C  0.29316224  0.87457056  0.48293441    -0.34700
C1126       C  0.29372883  0.90725383  0.48707436     0.15700
O1127       O  0.32075933  0.95331742  0.50757715    -0.26700
C1128       C  0.27847599  0.95606684  0.49768538     0.05500
C1129       C  0.26016272  0.92799135  0.48464408    -0.31600
O1130       O  0.33708682  0.82841785  0.49606797    -0.23400
C1131       C  0.37750424  0.82548215  0.51038920    -0.03400
C1132       C  0.39858314  0.85404258  0.51702775    -0.17800
H1133       H  0.39713310  0.92071526  0.52221561     0.20200
H1134       H  0.26377345  0.86189967  0.47411031     0.18600
H1135       H  0.20836620  0.88994067  0.02997759     0.18500
H1136       H  0.43102023  0.85811026  0.52915312     0.14400
C1137       C  0.31811509  0.86398207  0.85567622     0.29800
C1138       C  0.27705922  0.87917488  0.85700513    -0.36500
C1139       C  0.27788397  0.91207094  0.85518606     0.15800
C1140       C  0.31659616  0.92894796  0.85260757     0.21600
C1141       C  0.35787094  0.91362875  0.85085488    -0.34700
C1142       C  0.35702779  0.88049946  0.85234909     0.15700
O1143       O  0.32443178  0.83349958  0.85801788    -0.26700
C1144       C  0.36802877  0.82980810  0.85602096     0.05500
C1145       C  0.39020341  0.85839489  0.85210330    -0.31600
O1146       O  0.30955580  0.95962336  0.85215948    -0.23400
C1147       C  0.26569543  0.96244147  0.85410517    -0.03400
C1148       C  0.24436859  0.93349029  0.85593142    -0.17800
H1149       H  0.24651918  0.86616988  0.85958278     0.20200
H1150       H  0.38846104  0.92663896  0.84874862     0.18600
H1151       H  0.42539411  0.86236791  0.85040196     0.18500
H1152       H  0.20937477  0.92885450  0.85804074     0.14400
C1153       C  0.33298470  0.66950306  0.89306315     0.29800
C1154       C  0.33561692  0.63754409  0.90220182    -0.36500
C1155       C  0.30179306  0.61842174  0.88776524     0.15800
C1156       C  0.26702439  0.63025036  0.86707339     0.21600
C1157       C  0.26357673  0.66222150  0.85900585    -0.34700
C1158       C  0.29800056  0.68113143  0.87238381     0.15700
O1159       O  0.36512556  0.69015846  0.89710098    -0.26700
C1160       C  0.35056281  0.71518410  0.87871504     0.05500
C1161       C  0.30866128  0.71103252  0.86330633    -0.31600
O1162       O  0.24089330  0.60817974  0.85400235    -0.23400
C1163       C  0.25939322  0.58169978  0.86576118    -0.03400
C1164       C  0.29724088  0.58657426  0.88733627    -0.17800
H1165       H  0.36386116  0.62791187  0.91690393     0.20200
H1166       H  0.23762113  0.67130897  0.84117488     0.18600
H1167       H  0.29119353  0.72643189  0.84440582     0.18500
H1168       H  0.31846396  0.56937832  0.90048200     0.14400
C1169       C  0.44498152  0.74309160  0.72404045     0.29800
C1170       C  0.44063067  0.72532833  0.69170397    -0.36500
C1171       C  0.45198117  0.74066888  0.65919906     0.15800
C1172       C  0.46670174  0.77139802  0.65879024     0.21600
C1173       C  0.47260157  0.78875066  0.69130642    -0.34700
C1174       C  0.46089574  0.77348888  0.72377166     0.15700
O1175       O  0.43034184  0.73487678  0.75636667    -0.26700
C1176       C  0.43702878  0.76018616  0.77728236     0.05500
C1177       C  0.45648841  0.78490789  0.75856579    -0.31600
O1178       O  0.46728573  0.78307578  0.62540692    -0.23400
C1179       C  0.45352995  0.75949511  0.60404982    -0.03400
C1180       C  0.44410185  0.73231053  0.62348050    -0.17800
H1181       H  0.42613369  0.70205187  0.69159702     0.20200
H1182       H  0.48211403  0.81327547  0.69096567     0.18600
H1183       H  0.46325750  0.80848131  0.76830197     0.18500
H1184       H  0.42811403  0.71116237  0.61330780     0.14400
C1185       C  0.81709165  0.92968505  0.51086792     0.29800
C1186       C  0.77593845  0.91400179  0.51228065    -0.36500
C1187       C  0.77699115  0.88091059  0.51065586     0.15800
C1188       C  0.81595654  0.86471818  0.50709590     0.21600
C1189       C  0.85695691  0.88030966  0.50580142    -0.34700
C1190       C  0.85597261  0.91321129  0.50822818     0.15700
O1191       O  0.82387815  0.96036532  0.51276375    -0.26700
C1192       C  0.86774425  0.96364561  0.51197217     0.05500
C1193       C  0.88940031  0.93498788  0.50916376    -0.31600
O1194       O  0.80982949  0.83410325  0.50581621    -0.23400
C1195       C  0.76633555  0.83005107  0.50890180    -0.03400
C1196       C  0.74405329  0.85852893  0.51220907    -0.17800
H1197       H  0.74531521  0.92671928  0.51493862     0.20200
H1198       H  0.89214763  0.82269481  0.01214304     0.18600
H1199       H  0.92905782  0.88721028  0.01125336     0.18500
H1200       H  0.70896404  0.86222010  0.51497155     0.14400
C1201       C  0.84197018  0.58199972  0.97578022     0.29800
C1202       C  0.84645084  0.61450291  0.97067658    -0.36500
C1203       C  0.80946033  0.63257809  0.97902789     0.15800
C1204       C  0.79868468  0.66905530  0.47470794     0.21600
C1205       C  0.79541377  0.63713002  0.46538822    -0.34700
C1206       C  0.83131835  0.61841521  0.47619398     0.15700
O1207       O  0.87452804  0.56171230  0.97636745    -0.26700
C1208       C  0.87548084  0.58214528  0.49632412     0.05500
C1209       C  0.83556785  0.58652816  0.47741148    -0.31600
O1210       O  0.76605613  0.68930817  0.47365489    -0.23400
C1211       C  0.78242147  0.71444941  0.49096445    -0.03400
C1212       C  0.80509412  0.66426036  0.98268848    -0.17800
H1213       H  0.87772594  0.62512807  0.96376160     0.20200
H1214       H  0.76543127  0.62715249  0.45358887     0.18600
H1215       H  0.81189443  0.56909343  0.46798561     0.18500
H1216       H  0.82991957  0.68198231  0.97771904     0.14400
C1217       C  0.81990476  0.61161492  0.86737768     0.29800
C1218       C  0.77901022  0.62697659  0.87063910    -0.36500
C1219       C  0.77852644  0.65938842  0.86303293     0.15800
C1220       C  0.81603802  0.67571421  0.85371600     0.21600
C1221       C  0.85702200  0.66030271  0.85043158    -0.34700
C1222       C  0.85732943  0.62769188  0.85736118     0.15700
O1223       O  0.82703521  0.58122746  0.87157680    -0.26700
C1224       C  0.86963533  0.57729285  0.86397267     0.05500
C1225       C  0.89023067  0.60560095  0.85498102    -0.31600
O1226       O  0.80816528  0.70593317  0.84809047    -0.23400
C1227       C  0.76483678  0.70908218  0.85329359    -0.03400
C1228       C  0.74470275  0.68075042  0.86254258    -0.17800
H1229       H  0.74938836  0.61436043  0.87795343     0.20200
H1230       H  0.88647940  0.67280370  0.84246805     0.18600
H1231       H  0.92405304  0.60930964  0.84699985     0.18500
H1232       H  0.71035498  0.67660957  0.86862790     0.14400
C1233       C  0.80808418  0.86125907  0.87218466     0.29800
C1234       C  0.84791365  0.87638021  0.88147694    -0.36500
C1235       C  0.84717669  0.90930953  0.88045791     0.15800
C1236       C  0.80996560  0.92631591  0.87106824     0.21600
C1237       C  0.77000565  0.91120035  0.86228327    -0.34700
C1238       C  0.77076740  0.87829168  0.86307082     0.15700
O1239       O  0.80176980  0.83065066  0.86925752    -0.26700
C1240       C  0.75982101  0.82812127  0.85806988     0.05500
C1241       C  0.73902666  0.85702423  0.85383089    -0.31600
O1242       O  0.81808096  0.95664501  0.86769165    -0.23400
C1243       C  0.86093528  0.95931066  0.87576540    -0.03400
C1244       C  0.88063064  0.93038413  0.88350012    -0.17800
H1245       H  0.87782066  0.86339773  0.88760579     0.20200
H1246       H  0.74087171  0.92414502  0.85378274     0.18600
H1247       H  0.70544424  0.86156260  0.84467986     0.18500
H1248       H  0.91533680  0.92512807  0.88735258     0.14400
C1249       C  0.68908613  0.74468934  0.64643620     0.29800
C1250       C  0.69222649  0.72687598  0.67883080    -0.36500
C1251       C  0.68044560  0.74221430  0.71122864     0.15800
C1252       C  0.66622581  0.77297833  0.71147105     0.21600
C1253       C  0.66117880  0.79031946  0.67880472    -0.34700
C1254       C  0.67355257  0.77509530  0.64646074     0.15700
O1255       O  0.70474170  0.73651454  0.61442179    -0.26700
C1256       C  0.69913440  0.76184228  0.59337500     0.05500
C1257       C  0.67927359  0.78654867  0.61174228    -0.31600
O1258       O  0.66594984  0.78480326  0.74485225    -0.23400
C1259       C  0.67949225  0.76132042  0.76641153    -0.03400
C1260       C  0.68823632  0.73400103  0.74704499    -0.17800
H1261       H  0.70650685  0.70360988  0.67914971     0.20200
H1262       H  0.65215075  0.81488832  0.67903434     0.18600
H1263       H  0.67296576  0.81010358  0.60185426     0.18500
H1264       H  0.70416257  0.71292982  0.75724846     0.14400
loop_ 
_geom_bond_atom_site_label_1 
_geom_bond_atom_site_label_2 
_geom_bond_distance 
_geom_bond_site_symmetry_2 
_ccdc_geom_bond_type 
C1            C2   1.516       .  S
C1            C7   1.530       .  S
C1            C5   1.529       .  S
C1          C292   1.505       .  S
C2            H9   1.087       .  S
C2            C3   1.359       .  D
C3            C4   1.559       .  S
C3           C35   1.482       .  S
C4            C8   1.550       .  S
C4            C6   1.567       .  S
C4           H10   1.110       .  S
C5           H11   1.086       .  S
C5            C6   1.371       .  D
C6          C279   1.499       .  S
C7           H12   1.087       .  S
C7            C8   1.365       .  D
C8          C311   1.482       .  S
C13          C19   1.528       .  S
C13         C330   1.518   1_554  S
C13         C333   1.537       .  S
C13         C263   1.505   1_554  S
C14         C329   1.514       .  S
C14          H21   1.088       .  S
C14          C15   1.360       .  D
C15         C332   1.558       .  S
C15          C37   1.477       .  S
C16          C20   1.557       .  S
C16          C18   1.562       .  S
C16         C331   1.558   1_554  S
C16          H22   1.109       .  S
C17         C329   1.518       .  S
C17          H23   1.087       .  S
C17         C334   1.366       .  D
C18         C333   1.369       .  D
C18         C247   1.499       .  S
C19          H24   1.087       .  S
C19          C20   1.365       .  D
C20         C308   1.489       .  S
O25         Cu33   1.999       .  S
O25          C35   1.282       .  A
O26         Cu33   1.990       .  S
O26          C36   1.280       .  A
O27         Cu33   2.027       .  S
O27          C37   1.275       .  A
O28         Cu33   2.023       .  S
O28          C38   1.275       .  A
O29         Cu34   2.007       .  S
O29          C38   1.283       .  A
O30         Cu34   2.004       .  S
O30          C37   1.282       .  A
O31         Cu34   2.019       .  S
O31          C36   1.274       .  A
O32         Cu34   2.035       .  S
O32          C35   1.276       .  A
Cu33        Cu34   2.371       .  S
C36          C53   1.476       .  S
C38          C41   1.484       .  S
C39          C40   1.518       .  S
C39          C45   1.524       .  S
C39          C43   1.533       .  S
C39         C212   1.496       .  S
C40          H47   1.087       .  S
C40          C41   1.360       .  D
C41          C42   1.558       .  S
C42          C46   1.556       .  S
C42          C44   1.561       .  S
C42          H48   1.110       .  S
C43          H49   1.085       .  S
C43          C44   1.368       .  D
C44         C196   1.491       .  S
C45          H50   1.087       .  S
C45          C46   1.363       .  D
C46         C228   1.483       .  S
C51          C57   1.527       .  S
C51         C368   1.517   1_554  S
C51         C371   1.528       .  S
C51         C183   1.503   1_554  S
C52         C367   1.515       .  S
C52          H59   1.087       .  S
C52          C53   1.359       .  D
C53         C370   1.552       .  S
C54          C58   1.551       .  S
C54          C56   1.566       .  S
C54         C369   1.561   1_554  S
C54          H60   1.110       .  S
C55         C367   1.536       .  S
C55          H61   1.086       .  S
C55         C372   1.371       .  D
C56         C371   1.371       .  D
C56         C164   1.496       .  S
C57          H62   1.087       .  S
C57          C58   1.363       .  D
C58         C231   1.480       .  S
C63          C64   1.517       .  S
C63          C69   1.522       .  S
C63          C67   1.535       .  S
C63         C295   1.501       .  S
C64          H71   1.087       .  S
C64         C697   1.361       .  D
C65          C66   1.556   1_565  S
C65         C696   1.361       .  D
C65         C729   1.481   1_655  S
C66          C70   1.556   1_545  S
C66          C68   1.562       .  S
C66          H72   1.110       .  S
C67         H705   1.086       .  S
C67         C700   1.371       .  D
C68         C699   1.372   1_545  D
C68         C276   1.498       .  S
C69          H74   1.086       .  S
C69         C702   1.364       .  D
C70         C701   1.364       .  D
C70         C148   1.485       .  S
H73         C699   1.086       .  S
C75          C81   1.528       .  S
C75         C392   1.514   1_554  S
C75         C395   1.523   1_544  S
C75         C260   1.502   1_554  S
C76         C391   1.515       .  S
C76          H83   1.088       .  S
C76         C709   1.361       .  D
C77         C394   1.555       .  S
C77         C708   1.362       .  D
C77          C99   1.482   1_655  S
C78          C82   1.553       .  S
C78          C80   1.571       .  S
C78         C393   1.561   1_554  S
C78          H84   1.110       .  S
C79         C391   1.534       .  S
C79         H717   1.085       .  S
C79        C1028   1.370   1_545  D
C80        C1027   1.369   1_554  D
C80         C244   1.498       .  S
C81          H86   1.085       .  S
C81         C714   1.369   1_545  D
C82         C713   1.369       .  D
C82         C151   1.488       .  S
H85         C711   1.085       .  S
O87         Cu95   1.992       .  S
O87          C97   1.280       .  A
O88         Cu95   1.994       .  S
O88          C98   1.280       .  A
O89         Cu95   2.035       .  S
O89          C99   1.277       .  A
O90         Cu95   2.042       .  S
O90         C100   1.278       .  A
O91         Cu96   1.994       .  S
O91         C732   1.280   1_545  A
O92         Cu96   1.990       .  S
O92         C731   1.280       .  A
O93         Cu96   2.031       .  S
O93         C730   1.276       .  A
O94         Cu96   2.030       .  S
O94         C729   1.276   1_545  A
Cu95       Cu728   2.369       .  S
Cu96       Cu727   2.370   1_545  S
C97         C697   1.481   1_455  S
C97         O726   1.276       .  A
C98         C747   1.476       .  S
C98         O725   1.276       .  A
C99         O724   1.280       .  A
C100        C103   1.481       .  S
C100        O723   1.280       .  A
C101        C102   1.513       .  S
C101        C107   1.528       .  S
C101        C105   1.519   1_545  S
C101        C215   1.494       .  S
C102        H109   1.087       .  S
C102        C735   1.363   1_545  D
C103        C104   1.561       .  S
C103        C734   1.363       .  D
C104        C108   1.554       .  S
C104        C106   1.567       .  S
C104        H110   1.109       .  S
C105        H743   1.087       .  S
C105        C738   1.365       .  D
C106        C737   1.366       .  D
C106        C199   1.493       .  S
C107        H112   1.087       .  S
C107        C740   1.363   1_545  D
C108        C739   1.362       .  D
C108        C135   1.482       .  S
H111        C737   1.087       .  S
C113        C119   1.525       .  S
C113        C430   1.518       .  S
C113        C433   1.536       .  S
C113        C180   1.500       .  S
C114        C429   1.520       .  S
C114        H121   1.085       .  S
C114        C747   1.358       .  D
C115        C432   1.550       .  S
C115        C746   1.358   1_545  D
C115        C730   1.476       .  S
C116        C120   1.548   1_545  S
C116        C118   1.555       .  S
C116        C431   1.554   1_545  S
C116        H122   1.110       .  S
C117        C429   1.525       .  S
C117        H755   1.087       .  S
C117       C1066   1.368       .  D
C118       C1065   1.371   1_545  D
C118        C167   1.492       .  S
C119        H124   1.087       .  S
C119        C752   1.363       .  D
C120        C751   1.363       .  D
C120        C132   1.474       .  S
H123        C749   1.087       .  S
C125        O131   1.315       .  A
C125        C126   1.404       .  A
C125        C762   1.380       .  A
C126        C127   1.401       .  A
C126        H137   1.082       .  S
C127        C136   1.367       .  A
C127        C760   1.379       .  A
C128        O134   1.316       .  A
C128        C129   1.407       .  A
C128        C759   1.379   1_545  A
C129        C130   1.404       .  A
C129        H138   1.082       .  S
C130        C133   1.368       .  A
C130        C757   1.380   1_545  A
O131        C764   1.331       .  A
C132        O763   1.331       .  A
C132        C133   1.391   1_565  A
C133        H139   1.083       .  S
O134        C767   1.334   1_545  A
C135        O766   1.334       .  A
C135        C136   1.390       .  A
C136        H140   1.082       .  S
C141        O147   1.325       .  A
C141        C142   1.403       .  A
C141        C778   1.381   1_545  A
C142        C143   1.405       .  A
C142        H153   1.082       .  S
C143        C152   1.356       .  A
C143        C776   1.380   1_545  A
C144        O150   1.326       .  A
C144        C145   1.405       .  A
C144        C775   1.380       .  A
C145        C146   1.408       .  A
C145        H154   1.082       .  S
C146        C149   1.358       .  A
C146        C773   1.381       .  A
O147        C148   1.331   1_545  A
C148        C781   1.397       .  A
C149        C780   1.397       .  A
C149        H155   1.083       .  S
O150        C151   1.333       .  A
C151        C784   1.395       .  A
C152        C783   1.395   1_545  A
C152        H156   1.082       .  S
C157        O163   1.321       .  A
C157        C162   1.378       .  A
C157        C474   1.410       .  A
C158        C473   1.411       .  A
C158        C475   1.408       .  A
C158        H169   1.082       .  S
C159        C168   1.371       .  A
C159        C160   1.378       .  A
C159        C474   1.407       .  A
C160        O166   1.322       .  A
C160        C161   1.410       .  A
C161        C162   1.408       .  A
C161        H170   1.082       .  S
C162        C165   1.373       .  A
O163        C164   1.336       .  A
C164        C165   1.394       .  A
C165        H171   1.082       .  S
O166        C167   1.335       .  A
C167        C168   1.395       .  A
C168        H172   1.082       .  S
C173        O179   1.319       .  A
C173        C178   1.381       .  A
C173        C174   1.400   1_554  A
C174        C175   1.402       .  A
C174        H185   1.083       .  S
C175        C184   1.354       .  A
C175        C176   1.380   1_556  A
C176        O182   1.318       .  A
C176        C177   1.399       .  A
C177        C178   1.400       .  A
C177        H186   1.082       .  S
C178        C181   1.354       .  A
O179        C180   1.330       .  A
C180        C181   1.391       .  A
C181        H503   1.083       .  S
O182        C183   1.330   1_554  A
C183        C184   1.395       .  A
C184        H188   1.082       .  S
H187        C497   1.081       .  S
C189        O195   1.321       .  A
C189        C194   1.378       .  A
C189        C190   1.412       .  A
C190        C191   1.408       .  A
C190        H201   1.082       .  S
C191        C200   1.377       .  A
C191        C192   1.378       .  A
C192        O198   1.316       .  A
C192        C193   1.408       .  A
C193        C194   1.404       .  A
C193        H202   1.082       .  S
C194        C197   1.371       .  A
O195        C196   1.336       .  A
C196        C197   1.393       .  A
C197        H203   1.082       .  S
O198        C199   1.335       .  A
C199        C200   1.395       .  A
C200        H204   1.082       .  S
C205        O211   1.308       .  A
C205        C210   1.380       .  A
C205        C206   1.394       .  A
C206        C207   1.393       .  A
C206        H217   1.083       .  S
C207        C216   1.352       .  A
C207        C208   1.381       .  A
C208        O214   1.315       .  A
C208        C209   1.404       .  A
C209        C210   1.401       .  A
C209        H218   1.083       .  S
C210        C213   1.364       .  A
O211        C212   1.327       .  A
C212        C213   1.394       .  A
C213        H219   1.081       .  S
O214        C215   1.331       .  A
C215        C216   1.387       .  A
C216        H220   1.083       .  S
C221        O227   1.315       .  A
C221        C226   1.379       .  A
C221        C222   1.407       .  A
C222        C223   1.403       .  A
C222        H233   1.082       .  S
C223        C232   1.370       .  A
C223        C224   1.379       .  A
C224        O230   1.316       .  A
C224        C225   1.407       .  A
C225        C226   1.403       .  A
C225        H234   1.082       .  S
C226        C229   1.371       .  A
O227        C228   1.333       .  A
C228        C229   1.392       .  A
C229        H235   1.082       .  S
O230        C231   1.333       .  A
C231        C232   1.391       .  A
C232        H236   1.083       .  S
C237        O243   1.318       .  A
C237        C242   1.378       .  A
C237        C238   1.409       .  A
C238        C239   1.405       .  A
C238        H249   1.082       .  S
C239        C248   1.372       .  A
C239        C240   1.377       .  A
C240        O246   1.324       .  A
C240        C241   1.415       .  A
C241        C242   1.412       .  A
C241        H566   1.082       .  S
C242        C245   1.380       .  A
O243        C244   1.335       .  A
C244        C245   1.397       .  A
C245        H567   1.082       .  S
O246        C247   1.338       .  A
C247        C248   1.393       .  A
C248        H252   1.082       .  S
H250        C557   1.082       .  S
H251        C561   1.082       .  S
C253        O259   1.308       .  A
C253        C254   1.397       .  A
C253        C574   1.380       .  A
C254        C255   1.394       .  A
C254        H265   1.083       .  S
C255        C264   1.356       .  A
C255        C572   1.381       .  A
C256        O262   1.313       .  A
C256        C257   1.401       .  A
C256        C571   1.379       .  A
C257        C258   1.399       .  A
C257        H266   1.083   1_556  S
C258        C261   1.362       .  A
C258        C569   1.380       .  A
O259        C576   1.328       .  A
C260        O575   1.332       .  A
C260        C261   1.390       .  A
C261        H267   1.082   1_556  S
O262        C263   1.331       .  A
C263        C580   1.393       .  A
C264        C579   1.387       .  A
C264        H268   1.083       .  S
C269        O275   1.323       .  A
C269        C274   1.378       .  A
C269        C270   1.411       .  A
C270        C271   1.408       .  A
C270        H281   1.082       .  S
C271        C280   1.374       .  A
C271        C272   1.377       .  A
C272        O278   1.322       .  A
C272        C273   1.412       .  A
C273        C274   1.410       .  A
C273        H282   1.082       .  S
C274        C277   1.375       .  A
O275        C276   1.336       .  A
C276        C277   1.396       .  A
C277        H283   1.082       .  S
O278        C279   1.338       .  A
C279        C280   1.395       .  A
C280        H284   1.082       .  S
C285        O291   1.320       .  A
C285        C290   1.380       .  A
C285        C286   1.400       .  A
C286        C287   1.402       .  A
C286        H297   1.083       .  S
C287        C296   1.354       .  A
C287        C288   1.381       .  A
C288        O294   1.320       .  A
C288        C289   1.399       .  A
C289        C290   1.401       .  A
C289        H298   1.083       .  S
C290        C293   1.353       .  A
O291        C292   1.330       .  A
C292        C293   1.394       .  A
C293        H299   1.082       .  S
O294        C295   1.329       .  A
C295        C296   1.392       .  A
C296        H300   1.083       .  S
C301        O307   1.318       .  A
C301        C306   1.379       .  A
C301        C302   1.408       .  A
C302        C303   1.405       .  A
C302        H313   1.082       .  S
C303        C312   1.370       .  A
C303        C304   1.380       .  A
C304        O310   1.318       .  A
C304        C305   1.407       .  A
C305        C306   1.404       .  A
C305        H314   1.082       .  S
C306        C309   1.370       .  A
O307        C308   1.335       .  A
C308        C309   1.392       .  A
C309        H315   1.082       .  S
O310        C311   1.333       .  A
C311        C312   1.392       .  A
C312        H316   1.083       .  S
C317        C318   1.523       .  S
C317        C323   1.526       .  S
C317        C321   1.536       .  S
C317        C608   1.504       .  S
C318        H325   1.087       .  S
C318        C319   1.364       .  D
C319        C320   1.555       .  S
C319        C351   1.486       .  S
C320        C324   1.550       .  S
C320        C322   1.559       .  S
C320        H326   1.110       .  S
C321        H327   1.086       .  S
C321        C322   1.369       .  D
C322        C595   1.496       .  S
C323        H328   1.087       .  S
C323        C324   1.363       .  D
C324        C627   1.475       .  S
C329        C335   1.528       .  S
C329        C579   1.497       .  S
C330        H337   1.087       .  S
C330        C331   1.362       .  D
C331        C353   1.486       .  S
C332        C336   1.553       .  S
C332        C334   1.570       .  S
C332        H338   1.110       .  S
C333        H339   1.084   1_554  S
C334        C563   1.496       .  S
C335        H340   1.087       .  S
C335        C336   1.366       .  D
C336        C624   1.482       .  S
O341       Cu349   2.004       .  S
O341        C351   1.281       .  A
O342       Cu349   2.004       .  S
O342        C352   1.282       .  A
O343       Cu349   2.035       .  S
O343        C353   1.277       .  A
O344       Cu349   2.043       .  S
O344        C354   1.278       .  A
O345       Cu350   2.003       .  S
O345        C354   1.281       .  A
O346       Cu350   2.001       .  S
O346        C353   1.281       .  A
O347       Cu350   2.042       .  S
O347        C352   1.277       .  A
O348       Cu350   2.034       .  S
O348        C351   1.277       .  A
Cu349      Cu350   2.369       .  S
C352        C369   1.485       .  S
C354        C357   1.483       .  S
C355        C356   1.518       .  S
C355        C361   1.526       .  S
C355        C359   1.518       .  S
C355        C528   1.498       .  S
C356        H363   1.087       .  S
C356        C357   1.364       .  D
C357        C358   1.559       .  S
C358        C362   1.552       .  S
C358        C360   1.568       .  S
C358        H364   1.109       .  S
C359        H365   1.087       .  S
C359        C360   1.367       .  D
C360        C512   1.495       .  S
C361        H366   1.087       .  S
C361        C362   1.363       .  D
C362        C544   1.478       .  S
C367        C373   1.524       .  S
C367        C499   1.493       .  S
C368        H375   1.087       .  S
C368        C369   1.360       .  D
C370        C374   1.546       .  S
C370        C372   1.557       .  S
C370        H376   1.110       .  S
C371        H377   1.086   1_554  S
C372        C480   1.491       .  S
C373        H378   1.087       .  S
C373        C374   1.360       .  D
C374        C547   1.469       .  S
C379        C380   1.515       .  S
C379        C385   1.525       .  S
C379        C383   1.527       .  S
C379        C611   1.507       .  S
C380        H387   1.087       .  S
C380       C1013   1.358       .  D
C381        C382   1.561       .  S
C381       C1012   1.358   1_545  D
C381       C1045   1.483   1_655  S
C382        C386   1.553       .  S
C382        C384   1.571       .  S
C382        H388   1.110       .  S
C383       H1021   1.086       .  S
C383       C1016   1.372       .  D
C384       C1015   1.373       .  D
C384        C592   1.501       .  S
C385        H390   1.086       .  S
C385       C1018   1.366       .  D
C386       C1017   1.367   1_545  D
C386        C464   1.489       .  S
H389       C1015   1.086       .  S
C391        C397   1.524       .  S
C391        C576   1.498       .  S
C392        H399   1.088       .  S
C392       C1025   1.358   1_545  D
C393       C1024   1.358       .  D
C393        C415   1.482   1_655  S
C394        C398   1.556       .  S
C394        C396   1.562       .  S
C394        H400   1.110       .  S
C395       H1033   1.086       .  S
C395        C712   1.369   1_556  D
C396        C711   1.369       .  D
C396        C560   1.491       .  S
C397        H402   1.086       .  S
C397       C1030   1.364       .  D
C398       C1029   1.364       .  D
C398        C467   1.489       .  S
H401       C1027   1.087       .  S
O403       Cu411   2.000       .  S
O403        C413   1.282       .  A
O404       Cu411   1.996       .  S
O404        C414   1.281       .  A
O405       Cu411   2.032       .  S
O405        C415   1.275       .  A
O406       Cu411   2.020       .  S
O406        C416   1.274       .  A
O407       Cu412   2.009       .  S
O407       C1048   1.283       .  A
O408       Cu412   2.011       .  S
O408       C1047   1.283   1_545  A
O409       Cu412   2.021       .  S
O409       C1046   1.275   1_545  A
O410       Cu412   2.038       .  S
O410       C1045   1.276       .  A
Cu411     Cu1044   2.371       .  S
Cu412     Cu1043   2.371   1_545  S
C413       C1013   1.481   1_455  S
C413       O1042   1.276       .  A
C414       C1063   1.479   1_556  S
C414       O1041   1.275       .  A
C415       O1040   1.283       .  A
C416        C419   1.481       .  S
C416       O1039   1.282       .  A
C417        C418   1.517       .  S
C417        C423   1.527       .  S
C417        C421   1.537       .  S
C417        C531   1.496       .  S
C418        H425   1.087       .  S
C418       C1051   1.360       .  D
C419        C420   1.556       .  S
C419       C1050   1.360       .  D
C420        C424   1.549       .  S
C420        C422   1.559       .  S
C420        H426   1.110       .  S
C421       H1059   1.085       .  S
C421       C1054   1.369   1_545  D
C422       C1053   1.369       .  D
C422        C515   1.494       .  S
C423        H428   1.087       .  S
C423       C1056   1.361       .  D
C424       C1055   1.361       .  D
C424        C451   1.475       .  S
H427       C1053   1.085       .  S
C429        C435   1.527       .  S
C429        C496   1.503       .  S
C430        H437   1.087   1_554  S
C430       C1063   1.360       .  D
C431       C1062   1.360       .  D
C431       C1046   1.479   1_554  S
C432        C436   1.550       .  S
C432        C434   1.563       .  S
C432        H438   1.110       .  S
C433       H1071   1.086       .  S
C433        C750   1.370       .  D
C434        C749   1.368       .  D
C434        C483   1.489       .  S
C435        H440   1.087       .  S
C435       C1068   1.366       .  D
C436       C1067   1.366   1_545  D
C436        C448   1.479       .  S
H439       C1065   1.086       .  S
C441        O447   1.313       .  A
C441       C1078   1.379       .  A
C441        C442   1.403       .  A
C442        C443   1.400       .  A
C442        H453   1.082       .  S
C443        C452   1.366       .  A
C443       C1076   1.380       .  A
C444        O450   1.316       .  A
C444       C1075   1.380   1_545  A
C444        C445   1.407       .  A
C445        C446   1.403       .  A
C445        H454   1.082       .  S
C446       C1073   1.379   1_545  A
C446        C449   1.369       .  A
O447       C1080   1.331       .  A
C448       O1079   1.331   1_545  A
C448        C449   1.392       .  A
C449        H455   1.082       .  S
O450       C1083   1.333       .  A
C451       O1082   1.333       .  A
C451        C452   1.389       .  A
C452        H456   1.083       .  S
C457        O463   1.327       .  A
C457       C1094   1.380       .  A
C457        C458   1.406       .  A
C458        C459   1.409       .  A
C458        H469   1.082       .  S
C459        C468   1.358       .  A
C459       C1092   1.380       .  A
C460        O466   1.326       .  A
C460       C1091   1.380       .  A
C460        C461   1.403       .  A
C461        C462   1.406       .  A
C461        H470   1.082       .  S
C462       C1089   1.380       .  A
C462        C465   1.356       .  A
O463        C464   1.333       .  A
C464       C1097   1.395   1_545  A
C465       C1096   1.395       .  A
C465        H471   1.082       .  S
O466        C467   1.331       .  A
C467       C1100   1.398       .  A
C468       C1099   1.398       .  A
C468        H472   1.082       .  S
C473        O479   1.322       .  A
C473        C478   1.378       .  A
C474        H485   1.082       .  S
C475        C484   1.373       .  A
C475        C476   1.378       .  A
C476        O482   1.318       .  A
C476        C477   1.407       .  A
C477        C478   1.404       .  A
C477        H486   1.082       .  S
C478        C481   1.368       .  A
O479        C480   1.336       .  A
C480        C481   1.393       .  A
C481        H487   1.082       .  S
O482        C483   1.334       .  A
C483        C484   1.394       .  A
C484        H488   1.082       .  S
C489        O495   1.317       .  A
C489        C494   1.380       .  A
C489        C490   1.398       .  A
C490        C491   1.399       .  A
C490        H501   1.083       .  S
C491        C500   1.350       .  A
C491        C492   1.382       .  A
C492        O498   1.318       .  A
C492        C493   1.396       .  A
C493        C494   1.399       .  A
C493        H502   1.083       .  S
C494        C497   1.350       .  A
O495        C496   1.330       .  A
C496        C497   1.395       .  A
O498        C499   1.327       .  A
C499        C500   1.390       .  A
C500        H504   1.083       .  S
C505        O511   1.315       .  A
C505        C510   1.378       .  A
C505        C506   1.405       .  A
C506        C507   1.402       .  A
C506        H517   1.082       .  S
C507        C516   1.368       .  A
C507        C508   1.378       .  A
C508        O514   1.324       .  A
C508        C509   1.416       .  A
C509        C510   1.412       .  A
C509        H518   1.082       .  S
C510        C513   1.380       .  A
O511        C512   1.334       .  A
C512        C513   1.397       .  A
C513        H519   1.082       .  S
O514        C515   1.338       .  A
C515        C516   1.391       .  A
C516        H520   1.082       .  S
C521        O527   1.316       .  A
C521        C526   1.381       .  A
C521        C522   1.403       .  A
C522        C523   1.401       .  A
C522        H533   1.083       .  S
C523        C532   1.363       .  A
C523        C524   1.380       .  A
C524        O530   1.310       .  A
C524        C525   1.396       .  A
C525        C526   1.395       .  A
C525        H534   1.083       .  S
C526        C529   1.355       .  A
O527        C528   1.331       .  A
C528        C529   1.388       .  A
C529        H535   1.083       .  S
O530        C531   1.328       .  A
C531        C532   1.393       .  A
C532        H536   1.082       .  S
C537        O543   1.314       .  A
C537        C542   1.379       .  A
C537        C538   1.404       .  A
C538        C539   1.401       .  A
C538        H549   1.082       .  S
C539        C548   1.366       .  A
C539        C540   1.381       .  A
C540        O546   1.314       .  A
C540        C541   1.404       .  A
C541        C542   1.401       .  A
C541        H550   1.082       .  S
C542        C545   1.367       .  A
O543        C544   1.332       .  A
C544        C545   1.390       .  A
C545        H551   1.082       .  S
O546        C547   1.331       .  A
C547        C548   1.389       .  A
C548        H552   1.083       .  S
C553        O559   1.322       .  A
C553        C558   1.378       .  A
C553        C554   1.413       .  A
C554        C555   1.410       .  A
C554        H565   1.082       .  S
C555        C564   1.378       .  A
C555        C556   1.378       .  A
C556        O562   1.316       .  A
C556        C557   1.408       .  A
C557        C558   1.404       .  A
C558        C561   1.370       .  A
O559        C560   1.336       .  A
C560        C561   1.392       .  A
O562        C563   1.335       .  A
C563        C564   1.396       .  A
C564        H568   1.082       .  S
C569        O575   1.313       .  A
C569        C570   1.402       .  A
C570        C571   1.400       .  A
C570        H581   1.083       .  S
C571        C580   1.363       .  A
C572        O578   1.314       .  A
C572        C573   1.403       .  A
C573        C574   1.401       .  A
C573        H582   1.083       .  S
C574        C577   1.365       .  A
C576        C577   1.393       .  A
C577        H583   1.081       .  S
O578        C579   1.331       .  A
C580        H584   1.081       .  S
C585        O591   1.321       .  A
C585        C590   1.378       .  A
C585        C586   1.410       .  A
C586        C587   1.407       .  A
C586        H597   1.082       .  S
C587        C596   1.372       .  A
C587        C588   1.378       .  A
C588        O594   1.324       .  A
C588        C589   1.413       .  A
C589        C590   1.411       .  A
C589        H598   1.082       .  S
C590        C593   1.376       .  A
O591        C592   1.336       .  A
C592        C593   1.397       .  A
C593        H599   1.082       .  S
O594        C595   1.337       .  A
C595        C596   1.394       .  A
C596        H600   1.082       .  S
C601        O607   1.320       .  A
C601        C606   1.380       .  A
C601        C602   1.401       .  A
C602        C603   1.403       .  A
C602        H613   1.083       .  S
C603        C612   1.354       .  A
C603        C604   1.379       .  A
C604        O610   1.319       .  A
C604        C605   1.400       .  A
C605        C606   1.401       .  A
C605        H614   1.082       .  S
C606        C609   1.355       .  A
O607        C608   1.331       .  A
C608        C609   1.391       .  A
C609        H615   1.083       .  S
O610        C611   1.330       .  A
C611        C612   1.397       .  A
C612        H616   1.082       .  S
C617        O623   1.314       .  A
C617        C622   1.379       .  A
C617        C618   1.404       .  A
C618        C619   1.401       .  A
C618        H629   1.082       .  S
C619        C628   1.367       .  A
C619        C620   1.380       .  A
C620        O626   1.316       .  A
C620        C621   1.407       .  A
C621        C622   1.403       .  A
C621        H630   1.082       .  S
C622        C625   1.370       .  A
O623        C624   1.332       .  A
C624        C625   1.392       .  A
C625        H631   1.082       .  S
O626        C627   1.332       .  A
C627        C628   1.389       .  A
C628        H632   1.083       .  S
C633        C634   1.516       .  S
C633        C639   1.530       .  S
C633        C637   1.530       .  S
C633        C924   1.506       .  S
C634        H641   1.087       .  S
C634        C635   1.359       .  D
C635        C636   1.560       .  S
C635        C667   1.484       .  S
C636        C640   1.551       .  S
C636        C638   1.568       .  S
C636        H642   1.109       .  S
C637        H643   1.086       .  S
C637        C638   1.371       .  D
C638        C911   1.501       .  S
C639        H644   1.087       .  S
C639        C640   1.365       .  D
C640        C943   1.483       .  S
C645        C962   1.519   1_554  S
C645        C651   1.528       .  S
C645        C965   1.536       .  S
C645        C895   1.505   1_554  S
C646        C961   1.514       .  S
C646        H653   1.088       .  S
C646        C647   1.360       .  D
C647        C964   1.558       .  S
C647        C669   1.478       .  S
C648        C963   1.557   1_554  S
C648        C652   1.556       .  S
C648        C650   1.561       .  S
C648        H654   1.109       .  S
C649        C961   1.519       .  S
C649        H655   1.087       .  S
C649        C966   1.366       .  D
C650        C965   1.368       .  D
C650        C879   1.496       .  S
C651        H656   1.087       .  S
C651        C652   1.365       .  D
C652        C940   1.488       .  S
O657       Cu665   2.000       .  S
O657        C667   1.282       .  A
O658       Cu665   1.990       .  S
O658        C668   1.280       .  A
O659       Cu665   2.028       .  S
O659        C669   1.275       .  A
O660       Cu665   2.022       .  S
O660        C670   1.275       .  A
O661       Cu666   2.007       .  S
O661        C670   1.283       .  A
O662       Cu666   2.004       .  S
O662        C669   1.282       .  A
O663       Cu666   2.021       .  S
O663        C668   1.275       .  A
O664       Cu666   2.038       .  S
O664        C667   1.276       .  A
Cu665      Cu666   2.371       .  S
C668        C685   1.476       .  S
C670        C673   1.484       .  S
C671        C672   1.519       .  S
C671        C677   1.524       .  S
C671        C675   1.532       .  S
C671        C844   1.496       .  S
C672        H679   1.087       .  S
C672        C673   1.361       .  D
C673        C674   1.558       .  S
C674        C678   1.555       .  S
C674        C676   1.560       .  S
C674        H680   1.110       .  S
C675        H681   1.085       .  S
C675        C676   1.368       .  D
C676        C828   1.491       .  S
C677        H682   1.087       .  S
C677        C678   1.362       .  D
C678        C860   1.482       .  S
C683       C1000   1.517   1_554  S
C683        C689   1.527       .  S
C683       C1003   1.527   1_554  S
C683        C815   1.503   1_554  S
C684        C999   1.516       .  S
C684        H691   1.087       .  S
C684        C685   1.359       .  D
C685       C1002   1.552       .  S
C686       C1001   1.560   1_554  S
C686        C690   1.551       .  S
C686        C688   1.566       .  S
C686        H692   1.110       .  S
C687        C999   1.536       .  S
C687        H693   1.086       .  S
C687       C1004   1.371       .  D
C688       C1003   1.370   1_554  D
C688        C796   1.494       .  S
C689        H694   1.087       .  S
C689        C690   1.364       .  D
C690        C863   1.481       .  S
C695        C696   1.516       .  S
C695        C701   1.522       .  S
C695        C699   1.535       .  S
C695        C927   1.502       .  S
C696        H703   1.087       .  S
C697        C698   1.556       .  S
C698        C702   1.556       .  S
C698        C700   1.563       .  S
C698        H704   1.110       .  S
C700        C908   1.499       .  S
C701        H706   1.086       .  S
C702        C780   1.485       .  S
C707       C1024   1.514   1_554  S
C707        C713   1.527       .  S
C707       C1027   1.523   1_554  S
C707        C892   1.502   1_554  S
C708       C1023   1.516       .  S
C708        H715   1.088       .  S
C709       C1026   1.555       .  S
C709        C731   1.482   1_655  S
C710       C1025   1.561   1_554  S
C710        C714   1.553       .  S
C710        C712   1.571       .  S
C710        H716   1.110       .  S
C711       C1023   1.533       .  S
C712        C876   1.498       .  S
C713        H718   1.085       .  S
C714        C783   1.488       .  S
O719       Cu727   1.991       .  S
O719        C729   1.280       .  A
O720       Cu727   1.994       .  S
O720        C730   1.280   1_565  A
O721       Cu727   2.033       .  S
O721        C731   1.277   1_565  A
O722       Cu727   2.039       .  S
O722        C732   1.277       .  A
O723       Cu728   1.996       .  S
O724       Cu728   1.990       .  S
O725       Cu728   2.030       .  S
O726       Cu728   2.029       .  S
C732        C735   1.479       .  S
C733        C734   1.513       .  S
C733        C739   1.528       .  S
C733        C737   1.520       .  S
C733        C847   1.495       .  S
C734        H741   1.087       .  S
C735        C736   1.560       .  S
C736        C740   1.554       .  S
C736        C738   1.567       .  S
C736        H742   1.109       .  S
C738        C831   1.492       .  S
C739        H744   1.087       .  S
C740        C767   1.482       .  S
C745       C1062   1.518       .  S
C745        C751   1.526       .  S
C745       C1065   1.537       .  S
C745        C812   1.500       .  S
C746       C1061   1.520       .  S
C746        H753   1.085       .  S
C747       C1064   1.550       .  S
C748       C1063   1.554       .  S
C748        C752   1.548       .  S
C748        C750   1.555       .  S
C748        H754   1.110       .  S
C749       C1061   1.524   1_545  S
C750        C799   1.491       .  S
C751        H756   1.087       .  S
C752        C764   1.474       .  S
C757        O763   1.316       .  A
C757        C758   1.405       .  A
C758        C759   1.401       .  A
C758        H769   1.082       .  S
C759        C768   1.367       .  A
C760        O766   1.316       .  A
C760        C761   1.407       .  A
C761        C762   1.404       .  A
C761        H770   1.082       .  S
C762        C765   1.369       .  A
C764        C765   1.391       .  A
C765        H771   1.083       .  S
C767        C768   1.390       .  A
C768        H772   1.082       .  S
C773        O779   1.324       .  A
C773        C774   1.402       .  A
C774        C775   1.405       .  A
C774        H785   1.082       .  S
C775        C784   1.356       .  A
C776        O782   1.326       .  A
C776        C777   1.404       .  A
C777        C778   1.407       .  A
C777        H786   1.082       .  S
C778        C781   1.358       .  A
O779        C780   1.330       .  A
C781        H787   1.083       .  S
O782        C783   1.332       .  A
C784        H788   1.082       .  S
C789        O795   1.320       .  A
C789        C794   1.378       .  A
C789       C1106   1.409       .  A
C790       C1105   1.411       .  A
C790       C1107   1.408       .  A
C790        H801   1.082       .  S
C791       C1106   1.407       .  A
C791        C800   1.370       .  A
C791        C792   1.379       .  A
C792        O798   1.321       .  A
C792        C793   1.410       .  A
C793        C794   1.407       .  A
C793        H802   1.082       .  S
C794        C797   1.372       .  A
O795        C796   1.336       .  A
C796        C797   1.394       .  A
C797        H803   1.082       .  S
O798        C799   1.335       .  A
C799        C800   1.394       .  A
C800        H804   1.082       .  S
C805        O811   1.319   1_556  A
C805        C810   1.381   1_556  A
C805        C806   1.400       .  A
C806        C807   1.401       .  A
C806        H817   1.083       .  S
C807        C816   1.354       .  A
C807        C808   1.380   1_556  A
C808        O814   1.318       .  A
C808        C809   1.399       .  A
C809        C810   1.400       .  A
C809        H818   1.083       .  S
C810        C813   1.353       .  A
O811        C812   1.330       .  A
C812        C813   1.391       .  A
C813       H1135   1.083       .  S
O814        C815   1.330   1_554  A
C815        C816   1.395       .  A
C816        H820   1.082       .  S
H819       C1129   1.081       .  S
C821        O827   1.321       .  A
C821        C826   1.378       .  A
C821        C822   1.412       .  A
C822        C823   1.408       .  A
C822        H833   1.082       .  S
C823        C832   1.377       .  A
C823        C824   1.378       .  A
C824        O830   1.315       .  A
C824        C825   1.408       .  A
C825        C826   1.404       .  A
C825        H834   1.082       .  S
C826        C829   1.371       .  A
O827        C828   1.336       .  A
C828        C829   1.393       .  A
C829        H835   1.082       .  S
O830        C831   1.335       .  A
C831        C832   1.394       .  A
C832        H836   1.082       .  S
C837        O843   1.308       .  A
C837        C842   1.380       .  A
C837        C838   1.395       .  A
C838        C839   1.393       .  A
C838        H849   1.083       .  S
C839        C848   1.353       .  A
C839        C840   1.381       .  A
C840        O846   1.315       .  A
C840        C841   1.404       .  A
C841        C842   1.402       .  A
C841        H850   1.083       .  S
C842        C845   1.363       .  A
O843        C844   1.327       .  A
C844        C845   1.394       .  A
C845        H851   1.081       .  S
O846        C847   1.332       .  A
C847        C848   1.387       .  A
C848        H852   1.083       .  S
C853        O859   1.316       .  A
C853        C858   1.379       .  A
C853        C854   1.407       .  A
C854        C855   1.404       .  A
C854        H865   1.082       .  S
C855        C864   1.371       .  A
C855        C856   1.379       .  A
C856        O862   1.316       .  A
C856        C857   1.407       .  A
C857        C858   1.403       .  A
C857        H866   1.082       .  S
C858        C861   1.371       .  A
O859        C860   1.334       .  A
C860        C861   1.391       .  A
C861        H867   1.082       .  S
O862        C863   1.333       .  A
C863        C864   1.392       .  A
C864        H868   1.082       .  S
C869        O875   1.317       .  A
C869        C874   1.378       .  A
C869        C870   1.408       .  A
C870        C871   1.404       .  A
C870        H881   1.082       .  S
C871        C880   1.371       .  A
C871        C872   1.378       .  A
C872        O878   1.324       .  A
C872        C873   1.416       .  A
C873        C874   1.412       .  A
C873       H1198   1.082       .  S
C874        C877   1.380       .  A
O875        C876   1.335       .  A
C876        C877   1.398       .  A
C877       H1199   1.082       .  S
O878        C879   1.338       .  A
C879        C880   1.392       .  A
C880        H884   1.082       .  S
H882       C1189   1.082       .  S
H883       C1193   1.082       .  S
C885        O891   1.309       .  A
C885       C1206   1.380       .  A
C885        C886   1.397       .  A
C886        C887   1.394       .  A
C886        H897   1.083       .  S
C887        C896   1.357       .  A
C887       C1204   1.381       .  A
C888        O894   1.313   1_556  A
C888       C1203   1.379       .  A
C888        C889   1.400       .  A
C889        C890   1.398       .  A
C889        H898   1.083   1_556  S
C890       C1201   1.380       .  A
C890        C893   1.361       .  A
O891       C1208   1.328       .  A
C892       O1207   1.332       .  A
C892        C893   1.390       .  A
C893        H899   1.082   1_556  S
O894        C895   1.330   1_554  A
C895       C1212   1.394       .  A
C896       C1211   1.387       .  A
C896        H900   1.083       .  S
C901        O907   1.324       .  A
C901        C906   1.378       .  A
C901        C902   1.412       .  A
C902        C903   1.409       .  A
C902        H913   1.082       .  S
C903        C912   1.375       .  A
C903        C904   1.377       .  A
C904        O910   1.323       .  A
C904        C905   1.413       .  A
C905        C906   1.410       .  A
C905        H914   1.082       .  S
C906        C909   1.375       .  A
O907        C908   1.336       .  A
C908        C909   1.396       .  A
C909        H915   1.082       .  S
O910        C911   1.338       .  A
C911        C912   1.395       .  A
C912        H916   1.082       .  S
C917        O923   1.320       .  A
C917        C922   1.380       .  A
C917        C918   1.400       .  A
C918        C919   1.402       .  A
C918        H929   1.083       .  S
C919        C928   1.354       .  A
C919        C920   1.381       .  A
C920        O926   1.320       .  A
C920        C921   1.399       .  A
C921        C922   1.402       .  A
C921        H930   1.083       .  S
C922        C925   1.353       .  A
O923        C924   1.330       .  A
C924        C925   1.395       .  A
C925        H931   1.082       .  S
O926        C927   1.329       .  A
C927        C928   1.392       .  A
C928        H932   1.083       .  S
C933        O939   1.318       .  A
C933        C938   1.379       .  A
C933        C934   1.408       .  A
C934        C935   1.405       .  A
C934        H945   1.082       .  S
C935        C944   1.370       .  A
C935        C936   1.379       .  A
C936        O942   1.318       .  A
C936        C937   1.408       .  A
C937        C938   1.405       .  A
C937        H946   1.082       .  S
C938        C941   1.371       .  A
O939        C940   1.335       .  A
C940        C941   1.392       .  A
C941        H947   1.082       .  S
O942        C943   1.333       .  A
C943        C944   1.392       .  A
C944        H948   1.082       .  S
C949        C950   1.523       .  S
C949        C955   1.526       .  S
C949        C953   1.536       .  S
C949       C1240   1.505       .  S
C950        H957   1.087       .  S
C950        C951   1.364       .  D
C951        C952   1.556       .  S
C951        C983   1.488       .  S
C952        C956   1.550       .  S
C952        C954   1.560       .  S
C952        H958   1.110       .  S
C953        H959   1.086       .  S
C953        C954   1.369       .  D
C954       C1227   1.497       .  S
C955        H960   1.087       .  S
C955        C956   1.363       .  D
C956       C1259   1.476       .  S
C961        C967   1.528       .  S
C961       C1211   1.498       .  S
C962        H969   1.087       .  S
C962        C963   1.363       .  D
C963        C985   1.486       .  S
C964        C968   1.554       .  S
C964        C966   1.571       .  S
C964        H970   1.110       .  S
C965        H971   1.084   1_554  S
C966       C1195   1.497       .  S
C967        H972   1.087       .  S
C967        C968   1.367       .  D
C968       C1256   1.483       .  S
O973       Cu981   2.004       .  S
O973        C983   1.281       .  A
O974       Cu981   2.003       .  S
O974        C984   1.281       .  A
O975       Cu981   2.034       .  S
O975        C985   1.277       .  A
O976       Cu981   2.045       .  S
O976        C986   1.278       .  A
O977       Cu982   2.005       .  S
O977        C986   1.281       .  A
O978       Cu982   2.000       .  S
O978        C985   1.281       .  A
O979       Cu982   2.043       .  S
O979        C984   1.278       .  A
O980       Cu982   2.036       .  S
O980        C983   1.277       .  A
Cu981      Cu982   2.368       .  S
C984       C1001   1.484       .  S
C986        C989   1.485       .  S
C987        C988   1.519       .  S
C987        C993   1.526       .  S
C987        C991   1.518       .  S
C987       C1160   1.498       .  S
C988        H995   1.087       .  S
C988        C989   1.365       .  D
C989        C990   1.559       .  S
C990        C994   1.552       .  S
C990        C992   1.568       .  S
C990        H996   1.109       .  S
C991        H997   1.087       .  S
C991        C992   1.366       .  D
C992       C1144   1.495       .  S
C993        H998   1.087       .  S
C993        C994   1.363       .  D
C994       C1176   1.478       .  S
C999       C1005   1.525       .  S
C999       C1131   1.494       .  S
C1000      H1007   1.087       .  S
C1000      C1001   1.360       .  D
C1002      C1006   1.545       .  S
C1002      C1004   1.557       .  S
C1002      H1008   1.110       .  S
C1003      H1009   1.086       .  S
C1004      C1112   1.491       .  S
C1005      H1010   1.087       .  S
C1005      C1006   1.361       .  D
C1006      C1179   1.469       .  S
C1011      C1012   1.514       .  S
C1011      C1017   1.525       .  S
C1011      C1015   1.527   1_565  S
C1011      C1243   1.506       .  S
C1012      H1019   1.087       .  S
C1013      C1014   1.560       .  S
C1014      C1018   1.553       .  S
C1014      C1016   1.571       .  S
C1014      H1020   1.110       .  S
C1016      C1224   1.501       .  S
C1017      H1022   1.086       .  S
C1018      C1096   1.488       .  S
C1023      C1029   1.524       .  S
C1023      C1208   1.499       .  S
C1024      H1031   1.088       .  S
C1025      C1047   1.481   1_655  S
C1026      C1030   1.556       .  S
C1026      C1028   1.562   1_545  S
C1026      H1032   1.110   1_545  S
C1028      C1192   1.492       .  S
C1029      H1034   1.086       .  S
C1030      C1099   1.489       .  S
O1035     Cu1043   2.002       .  S
O1035      C1045   1.282   1_565  A
O1036     Cu1043   1.997       .  S
O1036      C1046   1.281       .  A
O1037     Cu1043   2.032       .  S
O1037      C1047   1.275       .  A
O1038     Cu1043   2.019       .  S
O1038      C1048   1.274   1_565  A
O1039     Cu1044   2.006       .  S
O1040     Cu1044   2.010       .  S
O1041     Cu1044   2.022       .  S
O1042     Cu1044   2.036       .  S
C1048      C1051   1.482       .  S
C1049      C1050   1.517       .  S
C1049      C1055   1.526       .  S
C1049      C1053   1.537       .  S
C1049      C1163   1.496       .  S
C1050      H1057   1.087       .  S
C1051      C1052   1.557   1_545  S
C1052      C1056   1.548   1_565  S
C1052      C1054   1.559       .  S
C1052      H1058   1.110       .  S
C1054      C1147   1.494       .  S
C1055      H1060   1.087       .  S
C1056      C1083   1.476       .  S
C1061      C1067   1.528       .  S
C1061      C1128   1.503       .  S
C1062      H1069   1.087   1_554  S
C1064      C1068   1.549       .  S
C1064      C1066   1.563       .  S
C1064      H1070   1.110       .  S
C1066      C1115   1.489       .  S
C1067      H1072   1.087       .  S
C1068      C1080   1.478       .  S
C1073      O1079   1.314       .  A
C1073      C1074   1.404       .  A
C1074      C1075   1.401       .  A
C1074      H1085   1.082       .  S
C1075      C1084   1.366       .  A
C1076      O1082   1.316       .  A
C1076      C1077   1.407       .  A
C1077      C1078   1.403       .  A
C1077      H1086   1.082       .  S
C1078      C1081   1.369       .  A
C1080      C1081   1.392       .  A
C1081      H1087   1.082       .  S
C1083      C1084   1.389   1_545  A
C1084      H1088   1.083       .  S
C1089      O1095   1.327       .  A
C1089      C1090   1.405       .  A
C1090      C1091   1.408       .  A
C1090      H1101   1.082       .  S
C1091      C1100   1.357       .  A
C1092      O1098   1.325   1_545  A
C1092      C1093   1.402   1_545  A
C1093      C1094   1.405   1_565  A
C1093      H1102   1.082       .  S
C1094      C1097   1.356   1_545  A
O1095      C1096   1.333       .  A
C1097      H1103   1.082       .  S
O1098      C1099   1.331   1_565  A
C1100      H1104   1.082       .  S
C1105      O1111   1.322       .  A
C1105      C1110   1.378       .  A
C1106      H1117   1.082       .  S
C1107      C1116   1.373       .  A
C1107      C1108   1.379       .  A
C1108      O1114   1.318       .  A
C1108      C1109   1.407       .  A
C1109      C1110   1.404       .  A
C1109      H1118   1.082       .  S
C1110      C1113   1.368       .  A
O1111      C1112   1.336       .  A
C1112      C1113   1.393       .  A
C1113      H1119   1.082       .  S
O1114      C1115   1.334       .  A
C1115      C1116   1.394       .  A
C1116      H1120   1.082       .  S
C1121      O1127   1.317       .  A
C1121      C1126   1.380       .  A
C1121      C1122   1.398       .  A
C1122      C1123   1.398       .  A
C1122      H1133   1.083       .  S
C1123      C1132   1.350       .  A
C1123      C1124   1.382       .  A
C1124      O1130   1.318       .  A
C1124      C1125   1.397       .  A
C1125      C1126   1.400       .  A
C1125      H1134   1.083       .  S
C1126      C1129   1.351       .  A
O1127      C1128   1.330       .  A
C1128      C1129   1.395       .  A
O1130      C1131   1.328       .  A
C1131      C1132   1.390       .  A
C1132      H1136   1.083       .  S
C1137      O1143   1.315       .  A
C1137      C1142   1.378       .  A
C1137      C1138   1.406       .  A
C1138      C1139   1.402       .  A
C1138      H1149   1.082       .  S
C1139      C1148   1.368       .  A
C1139      C1140   1.378       .  A
C1140      O1146   1.324       .  A
C1140      C1141   1.415       .  A
C1141      C1142   1.412       .  A
C1141      H1150   1.082       .  S
C1142      C1145   1.380       .  A
O1143      C1144   1.334       .  A
C1144      C1145   1.397       .  A
C1145      H1151   1.082       .  S
O1146      C1147   1.338       .  A
C1147      C1148   1.392       .  A
C1148      H1152   1.082       .  S
C1153      O1159   1.316       .  A
C1153      C1158   1.382       .  A
C1153      C1154   1.403       .  A
C1154      C1155   1.401       .  A
C1154      H1165   1.083       .  S
C1155      C1164   1.362       .  A
C1155      C1156   1.380       .  A
C1156      O1162   1.310       .  A
C1156      C1157   1.396       .  A
C1157      C1158   1.395       .  A
C1157      H1166   1.083       .  S
C1158      C1161   1.355       .  A
O1159      C1160   1.331       .  A
C1160      C1161   1.389       .  A
C1161      H1167   1.083       .  S
O1162      C1163   1.328       .  A
C1163      C1164   1.392       .  A
C1164      H1168   1.082       .  S
C1169      O1175   1.314       .  A
C1169      C1174   1.379       .  A
C1169      C1170   1.404       .  A
C1170      C1171   1.401       .  A
C1170      H1181   1.082       .  S
C1171      C1180   1.365       .  A
C1171      C1172   1.381       .  A
C1172      O1178   1.314       .  A
C1172      C1173   1.404       .  A
C1173      C1174   1.401       .  A
C1173      H1182   1.082       .  S
C1174      C1177   1.367       .  A
O1175      C1176   1.332       .  A
C1176      C1177   1.390       .  A
C1177      H1183   1.082       .  S
O1178      C1179   1.331       .  A
C1179      C1180   1.388       .  A
C1180      H1184   1.083       .  S
C1185      O1191   1.323       .  A
C1185      C1190   1.378       .  A
C1185      C1186   1.414       .  A
C1186      C1187   1.411       .  A
C1186      H1197   1.082       .  S
C1187      C1196   1.379       .  A
C1187      C1188   1.378       .  A
C1188      O1194   1.316       .  A
C1188      C1189   1.408       .  A
C1189      C1190   1.404       .  A
C1190      C1193   1.370       .  A
O1191      C1192   1.337       .  A
C1192      C1193   1.392       .  A
O1194      C1195   1.335       .  A
C1195      C1196   1.396       .  A
C1196      H1200   1.082       .  S
C1201      O1207   1.313       .  A
C1201      C1202   1.403       .  A
C1202      C1203   1.400       .  A
C1202      H1213   1.083       .  S
C1203      C1212   1.363       .  A
C1204      O1210   1.314       .  A
C1204      C1205   1.404       .  A
C1205      C1206   1.401       .  A
C1205      H1214   1.083       .  S
C1206      C1209   1.365       .  A
C1208      C1209   1.393       .  A
C1209      H1215   1.081       .  S
O1210      C1211   1.331       .  A
C1212      H1216   1.081       .  S
C1217      O1223   1.321       .  A
C1217      C1222   1.378       .  A
C1217      C1218   1.410       .  A
C1218      C1219   1.407       .  A
C1218      H1229   1.082       .  S
C1219      C1228   1.373       .  A
C1219      C1220   1.378       .  A
C1220      O1226   1.325       .  A
C1220      C1221   1.414       .  A
C1221      C1222   1.411       .  A
C1221      H1230   1.082       .  S
C1222      C1225   1.377       .  A
O1223      C1224   1.337       .  A
C1224      C1225   1.397       .  A
C1225      H1231   1.082       .  S
O1226      C1227   1.337       .  A
C1227      C1228   1.394       .  A
C1228      H1232   1.082       .  S
C1233      O1239   1.320       .  A
C1233      C1238   1.380       .  A
C1233      C1234   1.401       .  A
C1234      C1235   1.403       .  A
C1234      H1245   1.083       .  S
C1235      C1244   1.354       .  A
C1235      C1236   1.380       .  A
C1236      O1242   1.320       .  A
C1236      C1237   1.400       .  A
C1237      C1238   1.402       .  A
C1237      H1246   1.082       .  S
C1238      C1241   1.356       .  A
O1239      C1240   1.331       .  A
C1240      C1241   1.392       .  A
C1241      H1247   1.082       .  S
O1242      C1243   1.330       .  A
C1243      C1244   1.397       .  A
C1244      H1248   1.082       .  S
C1249      O1255   1.315       .  A
C1249      C1254   1.379       .  A
C1249      C1250   1.405       .  A
C1250      C1251   1.402       .  A
C1250      H1261   1.082       .  S
C1251      C1260   1.367       .  A
C1251      C1252   1.380       .  A
C1252      O1258   1.317       .  A
C1252      C1253   1.407       .  A
C1253      C1254   1.403       .  A
C1253      H1262   1.082       .  S
C1254      C1257   1.370       .  A
O1255      C1256   1.333       .  A
C1256      C1257   1.392       .  A
C1257      H1263   1.082       .  S
O1258      C1259   1.332       .  A
C1259      C1260   1.389       .  A
C1260      H1264   1.083       .  S
