geometry optimzed in LAMMPS
_audit_creation_date              2020-11-30 
_audit_creation_method            'lammps2cif' 
_symmetry_space_group_name_H-M    'P1' 
_symmetry_Int_Tables_number       1 
_symmetry_cell_setting            triclinic 
loop_ 
_symmetry_equiv_pos_as_xyz 
  x,y,z 
_cell_length_a                    37.23587423 
_cell_length_b                    34.40585742706537 
_cell_length_c                    22.781238375242662 
_cell_angle_alpha                 89.12208115950352 
_cell_angle_beta                  89.75618622896897 
_cell_angle_gamma                 90.1953248248246 
loop_ 
_atom_site_label 
_atom_site_type_symbol 
_atom_site_fract_x 
_atom_site_fract_y 
_atom_site_fract_z 
_atom_site_charge 
C1          C  0.99184806  0.34130231  0.23438223     0.87300
C2          C  0.01031033  0.38097649  0.23519177    -0.53000
C3          C  0.98941093  0.41038333  0.21410173     0.10200
C4          C  0.95183685  0.39719580  0.19359878     0.21200
C5          C  0.95687144  0.34621226  0.26900045    -0.53700
C6          C  0.93584437  0.37547776  0.24737824     0.10300
C7          C  0.98025313  0.33558163  0.17067335    -0.53200
C8          C  0.95916773  0.36463717  0.14927096     0.10900
H9          H  0.03741379  0.38548988  0.25134123     0.15400
H10         H  0.93470102  0.42107747  0.17622133     0.01100
H11         H  0.94914955  0.32790535  0.30627353     0.15700
H12         H  0.98770035  0.31046961  0.14496008     0.15500
C13         C  0.49118061  0.20165788  0.73879078     0.87300
C14         C  0.47345909  0.16159067  0.74112446    -0.53000
C15         C  0.49544118  0.13245445  0.72336461     0.10200
C16         C  0.53347292  0.14629714  0.70484532     0.21200
C17         C  0.52511509  0.19799896  0.77605429    -0.53700
C18         C  0.54735421  0.16902981  0.75807443     0.10300
C19         C  0.50466520  0.20697932  0.67560814    -0.53200
C20         C  0.52696761  0.17823232  0.65785766     0.10900
H21         H  0.44583004  0.15670150  0.75503689     0.15400
H22         H  0.55160284  0.12270604  0.69027796     0.01100
H23         H  0.53146134  0.21713672  0.81210187     0.15700
H24         H  0.49757550  0.23162256  0.64758840     0.15500
Zr25       Zr  0.63535690  0.10473304  0.24112932     2.17500
O26         O  0.62230094  0.06657789  0.15411429    -0.50500
O27         O  0.67299714  0.05135897  0.27961585    -0.73700
O28         O  0.67899717  0.11352255  0.16231489    -0.80500
O29         O  0.54896828  0.07158903  0.31550749    -0.82300
O30         O  0.69998180  0.17565303  0.15897391    -0.77900
O31         O  0.58739171  0.05639085  0.24138400    -0.89500
O32         O  0.69358853  0.06835558  0.36929142    -0.75500
O33         O  0.68402338  0.13955087  0.28332778    -0.85000
O34         O  0.62665641  0.09909636  0.34416799    -0.84700
O35         O  0.62904228  0.17082119  0.20510321    -0.71400
O36         O  0.57805098  0.13414219  0.26078001    -0.83600
Zr37       Zr  0.61329525  0.22916878  0.37559022     2.26400
Zr38       Zr  0.67777589  0.20560929  0.24915529     2.06300
Zr39       Zr  0.57041045  0.12882563  0.36452882     2.10000
Zr40       Zr  0.67484869  0.13417088  0.38672245     1.78800
O41         O  0.50524904  0.13398444  0.36103342    -0.92400
O42         O  0.74020186  0.13685161  0.38401941    -0.40200
O43         O  0.61863729  0.16329435  0.40958763    -0.76800
O44         O  0.67084134  0.20047603  0.35394938    -0.95500
O45         O  0.62123427  0.23527595  0.27181280    -0.88800
O46         O  0.56421798  0.19507218  0.33290688    -0.91600
C47         C  0.68991656  0.04404364  0.32773719     1.02100
C48         C  0.55920585  0.05044400  0.27290573     1.15000
C49         C  0.69734522  0.14114404  0.13837269     1.05800
O50         O  0.74285537  0.20365887  0.25810830    -0.93800
O51         O  0.69722879  0.26678416  0.29222107    -0.89500
O52         O  0.65919560  0.28000533  0.36778730    -0.82700
C53         C  0.68655041  0.28791231  0.33497013     1.12500
O54         O  0.55317846  0.17369184  0.13623624    -0.95800
Zr55       Zr  0.57269422  0.20069834  0.22934680     1.88900
O56         O  0.56655882  0.27596978  0.34891246    -0.72400
O57         O  0.67816904  0.25485935  0.17119470    -0.51700
O58         O  0.58734715  0.24636050  0.14993121    -0.96400
O59         O  0.50813212  0.18869188  0.22549459    -0.53600
O60         O  0.54459385  0.26129931  0.25897284    -0.72900
C61         C  0.54614871  0.28262446  0.30461295     0.99400
O62         O  0.62267959  0.27651520  0.45280376    -0.61800
O63         O  0.56754556  0.07622160  0.43750776    -0.56600
O64         O  0.58591890  0.20951689  0.47039533    -0.93200
O65         O  0.55561025  0.15248746  0.46046895    -0.91700
O66         O  0.65790918  0.09842728  0.47577426    -0.92000
O67         O  0.70130715  0.16268137  0.47368168    -0.90800
C68         C  0.56588157  0.18163388  0.49025201     1.18300
H69         H  0.62568481  0.07232199  0.35736888     0.34200
H70         H  0.68990884  0.21418731  0.37348727     0.45000
H71         H  0.54133044  0.20513042  0.34560983     0.38600
H72         H  0.63117379  0.17157349  0.16286982     0.35100
H73         H  0.74800307  0.11650129  0.41237347     0.26800
H74         H  0.70283125  0.25425369  0.15479833     0.32800
H75         H  0.56477355  0.26064308  0.14221960     0.38700
H76         H  0.68002456  0.08467864  0.48804714     0.33100
H77         H  0.54157329  0.07189056  0.44455146     0.32000
H78         H  0.49681176  0.12245270  0.39873701     0.33700
H79         H  0.49799404  0.21205463  0.20588402     0.32700
H80         H  0.68422190  0.18324662  0.48510426     0.36700
H81         H  0.59851946  0.28271014  0.46832583     0.29400
H82         H  0.64418830  0.05123884  0.14601273     0.33600
H83         H  0.53682637  0.19319191  0.11852105     0.36500
H84         H  0.57561990  0.05252569  0.41726215     0.29100
H85         H  0.63487593  0.26221235  0.48503963     0.42000
H86         H  0.74718032  0.19995025  0.30067026     0.32000
H87         H  0.74687380  0.12651330  0.34516567     0.39600
H88         H  0.49967160  0.19030662  0.26661665     0.31500
H89         H  0.66288778  0.24395984  0.13998257     0.31600
H90         H  0.62049698  0.08550352  0.12107493     0.31800
C91         C  0.75727955  0.09880369  0.90400677     0.87300
C92         C  0.74881050  0.10664267  0.96880073    -0.53000
C93         C  0.73444569  0.14265840  0.97890851     0.10200
C94         C  0.73058819  0.16761008  0.92217806     0.21200
C95         C  0.72198406  0.10635333  0.87178748    -0.53700
C96         C  0.70805792  0.14217361  0.88118842     0.10300
C97         C  0.78246487  0.13206170  0.88533430    -0.53200
C98         C  0.76845836  0.16810449  0.89418643     0.10900
H99         H  0.75398505  0.08519135  0.00301754     0.15400
H100        H  0.71912102  0.19692274  0.92949075     0.01100
H101        H  0.70884890  0.08493935  0.84454341     0.15700
H102        H  0.80901237  0.12753668  0.86674987     0.15500
Zr103      Zr  0.85794685  0.44613852  0.72725190     2.17500
O104        O  0.87763766  0.47909295  0.63703751    -0.50500
O105        O  0.82058965  0.50037728  0.76109748    -0.73700
O106        O  0.81378175  0.44160125  0.64874270    -0.80500
O107        O  0.94000464  0.47987728  0.81036614    -0.82300
O108        O  0.79266157  0.37957229  0.64434733    -0.77900
O109        O  0.90269259  0.49730531  0.73558801    -0.89500
O110        O  0.79694946  0.48021071  0.84818873    -0.75500
O111        O  0.80793552  0.41142319  0.76767663    -0.85000
O112        O  0.86503621  0.44959877  0.83083716    -0.84700
O113        O  0.86397406  0.38055182  0.69211146    -0.71400
O114        O  0.91451986  0.41552677  0.74979257    -0.83600
Zr115      Zr  0.87563969  0.32009993  0.86472617     2.26400
Zr116      Zr  0.81388488  0.34585857  0.73430963     2.06300
Zr117      Zr  0.92062639  0.41892782  0.85382294     2.10000
Zr118      Zr  0.81522694  0.41510785  0.87117322     1.78800
O119        O  0.98498034  0.40975252  0.84115897    -0.92400
O120        O  0.75002222  0.41115236  0.86467501    -0.40200
O121        O  0.87073263  0.38551486  0.89817576    -0.76800
O122        O  0.81903347  0.34985651  0.83930750    -0.95500
O123        O  0.86944624  0.31493365  0.76074444    -0.88800
O124        O  0.92618788  0.35319260  0.82324673    -0.91600
C125        C  0.80193660  0.50594381  0.80791494     1.02100
C126        C  0.92967109  0.50289175  0.76924798     1.15000
C127        C  0.79532323  0.41476469  0.62422947     1.05800
O128        O  0.74855763  0.34380760  0.73168082    -0.93800
O129        O  0.79071406  0.28656532  0.78233274    -0.89500
O130        O  0.82824997  0.27168117  0.85799250    -0.82700
C131        C  0.80052635  0.26511314  0.82620370     1.12500
O132        O  0.94109727  0.37522824  0.62574622    -0.95800
Zr133      Zr  0.91926476  0.34917012  0.71948144     1.88900
O134        O  0.92143055  0.27243202  0.83938954    -0.72400
O135        O  0.81954812  0.29632291  0.65967778    -0.51700
O136        O  0.90408409  0.30339137  0.64283066    -0.96400
O137        O  0.98416237  0.35915973  0.71666998    -0.53600
O138        O  0.94649396  0.28819281  0.75106276    -0.72900
C139        C  0.94308427  0.26616264  0.79663381     0.99400
O140        O  0.86312960  0.27169992  0.94166358    -0.61800
O141        O  0.93075965  0.46754674  0.92901148    -0.56600
O142        O  0.90324676  0.33585484  0.95975793    -0.93200
O143        O  0.93354797  0.39311803  0.95052477    -0.91700
O144        O  0.82536633  0.45300508  0.95899423    -0.92000
O145        O  0.78926258  0.38406947  0.95825771    -0.90800
C146        C  0.92320481  0.36316857  0.97999131     1.18300
H147        H  0.86587388  0.47612724  0.84407924     0.34200
H148        H  0.79922595  0.33689129  0.85887027     0.45000
H149        H  0.94857534  0.34232549  0.83696300     0.38600
H150        H  0.86251034  0.38062112  0.64982901     0.35100
H151        H  0.74113329  0.42854313  0.89574808     0.26800
H152        H  0.79448362  0.28890070  0.65061405     0.32800
H153        H  0.92639220  0.28853933  0.63589676     0.38700
H154        H  0.80249153  0.46689921  0.96564446     0.33100
H155        H  0.95524413  0.47787164  0.92152110     0.32000
H156        H  0.99447094  0.40718488  0.88154575     0.33700
H157        H  0.99368820  0.33707290  0.69406537     0.32700
H158        H  0.80837820  0.36656697  0.97298501     0.36700
H159        H  0.88683438  0.26294324  0.95618916     0.29400
H160        H  0.85804890  0.49721193  0.62624344     0.33600
H161        H  0.95470154  0.35389670  0.60738532     0.36500
H162        H  0.91449823  0.48936120  0.91904636     0.29100
H163        H  0.85227818  0.28610549  0.97456834     0.42000
H164        H  0.74089941  0.36816838  0.75051548     0.32000
H165        H  0.74394994  0.42486872  0.82752843     0.39600
H166        H  0.99237149  0.35397770  0.75729245     0.31500
H167        H  0.82804379  0.31051095  0.62410021     0.31600
H168        H  0.87735319  0.45895580  0.60644277     0.31800
C169        C  0.72772570  0.45870743  0.39092823     0.87300
C170        C  0.73864825  0.45172068  0.45566881    -0.53000
C171        C  0.75283271  0.41554199  0.46719976     0.10200
C172        C  0.75430005  0.38978718  0.41214410     0.21200
C173        C  0.76179201  0.45004972  0.35566831    -0.53700
C174        C  0.77567076  0.41417779  0.36681141     0.10300
C175        C  0.70163527  0.42535828  0.37784828    -0.53200
C176        C  0.71553251  0.38922207  0.38815612     0.10900
H177        H  0.73529649  0.47365462  0.48891423     0.15400
H178        H  0.76577146  0.36047399  0.42062549     0.01100
H179        H  0.77425401  0.47081317  0.32540078     0.15700
H180        H  0.67468762  0.42992945  0.36108529     0.15500
C181        C  0.49687311  0.45654217  0.28253083     0.87300
C182        C  0.51537655  0.41693128  0.28221396    -0.53000
C183        C  0.49409919  0.38710932  0.30184057     0.10200
C184        C  0.45584418  0.39990187  0.32006031     0.21200
C185        C  0.46272013  0.45157766  0.24598301    -0.53700
C186        C  0.44110319  0.42195379  0.26577224     0.10300
C187        C  0.48353534  0.46161149  0.34568106    -0.53200
C188        C  0.46188610  0.43220186  0.36529400     0.10900
H189        H  0.54301281  0.41285010  0.26813079     0.15400
H190        H  0.43829167  0.37579703  0.33617956     0.01100
H191        H  0.45583839  0.47030256  0.20890637     0.15700
H192        H  0.49019960  0.48658285  0.37226148     0.15500
C193        C  0.98742276  0.09082826  0.79020071     0.87300
C194        C  0.96982375  0.13084645  0.78648982    -0.53000
C195        C  0.99191174  0.16036133  0.80292244     0.10200
C196        C  0.02977731  0.14690836  0.82189974     0.21200
C197        C  0.02154475  0.09406535  0.75267559    -0.53700
C198        C  0.04381583  0.12342818  0.76943252     0.10300
C199        C  0.00062253  0.08659480  0.85349069    -0.53200
C200        C  0.02292592  0.11572804  0.87012397     0.10900
H201        H  0.94231058  0.13544532  0.77229743     0.15400
H202        H  0.04791324  0.17082293  0.83549482     0.01100
H203        H  0.02787896  0.07451361  0.71711514     0.15700
H204        H  0.99331099  0.06239678  0.88244458     0.15500
Zr205      Zr  0.12928538  0.19349948  0.28531223     2.17500
O206        O  0.11130738  0.22694386  0.37446586    -0.50500
O207        O  0.16563999  0.24847356  0.24819548    -0.73700
O208        O  0.17316658  0.18787822  0.36403387    -0.80500
O209        O  0.04359768  0.22511456  0.21013600    -0.82300
O210        O  0.19666636  0.12691605  0.36584785    -0.77900
O211        O  0.08285647  0.24262598  0.28144173    -0.89500
O212        O  0.18787392  0.23164437  0.15928466    -0.75500
O213        O  0.17894850  0.16184659  0.24080174    -0.85000
O214        O  0.11911810  0.19856776  0.18244137    -0.84700
O215        O  0.12606280  0.12727811  0.32136513    -0.71400
O216        O  0.07289551  0.16127044  0.26795732    -0.83600
Zr217      Zr  0.11099972  0.06908443  0.15068969     2.26400
Zr218      Zr  0.17592418  0.09562265  0.27530026     2.06300
Zr219      Zr  0.06362398  0.16610071  0.16460046     2.10000
Zr220      Zr  0.16845935  0.16663487  0.13784244     1.78800
O221        O  0.99974660  0.15376776  0.17963172    -0.92400
O222        O  0.23365121  0.16183402  0.13642484    -0.40200
O223        O  0.11300954  0.13519495  0.11710825    -0.76800
O224        O  0.16760951  0.10040697  0.17075740    -0.95500
O225        O  0.12043951  0.06300719  0.25404220    -0.88800
O226        O  0.06086373  0.09968952  0.19600900    -0.91600
C227        C  0.18348557  0.25586078  0.20076801     1.02100
C228        C  0.05458898  0.24765465  0.25046697     1.15000
C229        C  0.19251746  0.16105184  0.38746390     1.05800
O230        O  0.24069382  0.10313634  0.26503239    -0.93800
O231        O  0.19727446  0.03560300  0.23039889    -0.89500
O232        O  0.15826656  0.02036146  0.15743040    -0.82700
C233        C  0.18637717  0.01376312  0.18858469     1.12500
O234        O  0.05112286  0.11729467  0.39476643    -0.95800
Zr235      Zr  0.07091042  0.09432109  0.29909008     1.88900
O236        O  0.06546484  0.02058004  0.17744237    -0.72400
O237        O  0.17869370  0.04527342  0.35142701    -0.51700
O238        O  0.09024106  0.04700882  0.37312300    -0.96400
O239        O  0.00640344  0.10434688  0.30933578    -0.53600
O240        O  0.04311554  0.03391233  0.26794304    -0.72900
C241        C  0.04495873  0.01319941  0.22169736     0.99400
O242        O  0.12304647  0.02381114  0.07157018    -0.61800
O243        O  0.05107534  0.21561414  0.08978379    -0.56600
O244        O  0.08236097  0.08742659  0.05688845    -0.93200
O245        O  0.04933435  0.14225626  0.06847659    -0.91700
O246        O  0.15327515  0.20594719  0.05162006    -0.92000
O247        O  0.19007081  0.14001681  0.04581016    -0.90800
C248        C  0.06094027  0.11406222  0.03790105     1.18300
H249        H  0.11738931  0.22532866  0.16933479     0.34200
H250        H  0.18698390  0.08777212  0.15034338     0.45000
H251        H  0.03824552  0.08849796  0.18422210     0.38600
H252        H  0.12846731  0.12660268  0.36352528     0.35100
H253        H  0.24154627  0.18202794  0.10769219     0.26800
H254        H  0.20439016  0.04393309  0.36224576     0.32800
H255        H  0.06909502  0.03002258  0.38016145     0.38700
H256        H  0.17517350  0.22141204  0.04278448     0.33100
H257        H  0.02616856  0.22416773  0.09762915     0.32000
H258        H  0.98917688  0.15535613  0.13987529     0.33700
H259        H  0.99733237  0.08069140  0.32987269     0.32700
H260        H  0.17626314  0.11561002  0.04122293     0.36700
H261        H  0.09929454  0.01575267  0.05650464     0.29400
H262        H  0.13151501  0.24441199  0.38438841     0.33600
H263        H  0.03928047  0.09477227  0.41440908     0.36500
H264        H  0.06629118  0.23818401  0.09985337     0.29100
H265        H  0.13410007  0.03954483  0.03945947     0.42000
H266        H  0.24532434  0.10078764  0.22240989     0.32000
H267        H  0.24134485  0.17187778  0.17488603     0.39600
H268        H  0.99681538  0.10230515  0.26906365     0.31500
H269        H  0.16672444  0.05666614  0.38599995     0.31600
H270        H  0.11088371  0.20676704  0.40594103     0.31800
C271        C  0.25450657  0.20018804  0.62318730     0.87300
C272        C  0.24527273  0.19386602  0.55814242    -0.53000
C273        C  0.23040543  0.15819203  0.54677551     0.10200
C274        C  0.22668937  0.13210205  0.60250006     0.21200
C275        C  0.21929894  0.19226628  0.65636240    -0.53700
C276        C  0.20471754  0.15676727  0.64548244     0.10300
C277        C  0.27929462  0.16634409  0.63931709    -0.53200
C278        C  0.26472784  0.13071593  0.62930008     0.10900
H279        H  0.25037415  0.21586714  0.52452031     0.15400
H280        H  0.21483018  0.10303640  0.59417999     0.01100
H281        H  0.20672532  0.21317611  0.68514796     0.15700
H282        H  0.30605193  0.17019291  0.65721040     0.15500
Zr283      Zr  0.35240092  0.34900393  0.78276661     2.17500
O284        O  0.36869109  0.30998411  0.86895440    -0.50500
O285        O  0.31357778  0.29662866  0.74623847    -0.73700
O286        O  0.31071486  0.35586495  0.86495435    -0.80500
O287        O  0.43656173  0.31630343  0.70362900    -0.82300
O288        O  0.28926317  0.41762249  0.86720511    -0.77900
O289        O  0.39897028  0.30006952  0.77929310    -0.89500
O290        O  0.29378918  0.31464899  0.65576245    -0.75500
O291        O  0.30339189  0.38406389  0.74165879    -0.85000
O292        O  0.36022803  0.34546425  0.67932652    -0.84700
O293        O  0.35939010  0.41413071  0.81872850    -0.71400
O294        O  0.40964340  0.37890993  0.76114295    -0.83600
Zr295      Zr  0.37328151  0.47580925  0.64740623     2.26400
Zr296      Zr  0.31021338  0.44919153  0.77611611     2.06300
Zr297      Zr  0.41633476  0.37585559  0.65710187     2.10000
Zr298      Zr  0.31164192  0.38100897  0.63798923     1.78800
O299        O  0.48132762  0.38325141  0.66181294    -0.92400
O300        O  0.24627508  0.38191148  0.64291406    -0.40200
O301        O  0.36766156  0.41073054  0.61297163    -0.76800
O302        O  0.31602455  0.44623208  0.67112007    -0.95500
O303        O  0.36641743  0.47978874  0.75133494    -0.88800
O304        O  0.42280424  0.44145155  0.68880421    -0.91600
C305        C  0.29691975  0.28994845  0.69794926     1.02100
C306        C  0.42642870  0.29438695  0.74653786     1.15000
C307        C  0.29251637  0.38306545  0.88891476     1.05800
O308        O  0.24486321  0.44654663  0.77499885    -0.93800
O309        O  0.28823134  0.01283887  0.74098039    -0.89500
O310        O  0.32577513  0.02831313  0.66496068    -0.82700
C311        C  0.29827180  0.03479670  0.69768584     1.12500
O312        O  0.43432688  0.41878777  0.88776069    -0.95800
Zr313      Zr  0.41539632  0.44484629  0.79261893     1.89300
O314        O  0.41964658  0.02520179  0.68264997    -0.72400
O315        O  0.31417550  0.49797578  0.85214887    -0.51700
O316        O  0.40244708  0.49079485  0.87025855    -0.96400
O317        O  0.47952052  0.43062039  0.79407119    -0.53600
O318        O  0.44533930  0.00559760  0.76838280    -0.72900
C319        C  0.44236526  0.02903137  0.72442133     0.99400
O320        O  0.36531047  0.52568929  0.57130047    -0.61800
O321        O  0.42097631  0.32668799  0.58132785    -0.56600
O322        O  0.40128713  0.45924085  0.55245964    -0.93200
O323        O  0.43090852  0.40175365  0.56124691    -0.91700
O324        O  0.32762372  0.35063581  0.54564414    -0.92000
O325        O  0.28225906  0.41257410  0.55485302    -0.90800
C326        C  0.42123745  0.43195394  0.53215929     1.18300
H327        H  0.36104264  0.31893011  0.66624153     0.34200
H328        H  0.29655013  0.45976232  0.65201442     0.45000
H329        H  0.44551592  0.45206269  0.67546471     0.38600
H330        H  0.35782710  0.41403909  0.86103421     0.35100
H331        H  0.23840647  0.36143001  0.61567473     0.26800
H332        H  0.28923471  0.50082769  0.86665399     0.32800
H333        H  0.42567906  0.50363876  0.87854766     0.38700
H334        H  0.30975503  0.32956749  0.54080845     0.33100
H335        H  0.44580352  0.31665766  0.58429564     0.32000
H336        H  0.49087373  0.36225389  0.63699965     0.33700
H337        H  0.49013699  0.45046135  0.81987441     0.32700
H338        H  0.29723658  0.43579441  0.54605702     0.36700
H339        H  0.38982205  0.53311124  0.55820179     0.29400
H340        H  0.34757558  0.29330930  0.87792282     0.33600
H341        H  0.45060772  0.43848352  0.90455885     0.36500
H342        H  0.40562148  0.30475591  0.59482345     0.29100
H343        H  0.35443961  0.51236694  0.53745402     0.42000
H344        H  0.23854364  0.44623402  0.73283413     0.32000
H345        H  0.24024994  0.37136447  0.68242817     0.39600
H346        H  0.48836157  0.43789236  0.75436048     0.31500
H347        H  0.32701414  0.48493669  0.88488971     0.31600
H348        H  0.37024344  0.32833692  0.90191870     0.31800
C349        C  0.22841917  0.34608970  0.12562846     0.87300
C350        C  0.23715048  0.35237470  0.05995943    -0.53000
C351        C  0.25328175  0.38728556  0.04675521     0.10200
C352        C  0.25867613  0.41290513  0.10100450     0.21200
C353        C  0.26430227  0.35221073  0.15697018    -0.53700
C354        C  0.28013241  0.38713674  0.14422548     0.10300
C355        C  0.20526731  0.38110974  0.14200467    -0.53200
C356        C  0.22111898  0.41606538  0.12923565     0.10900
H357        H  0.23090527  0.33092452  0.02706449     0.15400
H358        H  0.27157617  0.44141836  0.09092332     0.01100
H359        H  0.27625246  0.33068745  0.18623066     0.15700
H360        H  0.17856159  0.37853423  0.16107161     0.15500
C361        C  0.27512065  0.37289292  0.94584055    -0.15600
C362        C  0.26600267  0.39912437  0.98670365    -0.30800
H363        H  0.27309101  0.34211895  0.95657188     0.13400
H364        H  0.27084608  0.42981386  0.97792415     0.14000
C365        C  0.28112570  0.25091835  0.68891025    -0.15600
C366        C  0.27038984  0.23974531  0.63508054    -0.30800
H367        H  0.27929670  0.23068519  0.72589376     0.13400
H368        H  0.27325141  0.25974829  0.59796697     0.14000
C369        C  0.28538571  0.09493709  0.64108307    -0.15600
C370        C  0.27587541  0.06919026  0.68339036    -0.30800
H371        H  0.31086163  0.09194360  0.61823775     0.13400
H372        H  0.25134370  0.07375784  0.70834759     0.14000
C373        C  0.21017481  0.17141835  0.44357514    -0.15600
C374        C  0.21764225  0.14580342  0.48739958    -0.30800
H375        H  0.21324232  0.20227574  0.45128187     0.13400
H376        H  0.21166438  0.11521766  0.48133989     0.14000
C377        C  0.19959985  0.29506748  0.19199434    -0.15600
C378        C  0.21130489  0.30690255  0.13837590    -0.30800
H379        H  0.20105493  0.31468637  0.22881874     0.13400
H380        H  0.20848908  0.28741054  0.10157530     0.14000
C381        C  0.20134501  0.46987694  0.19136654    -0.15600
C382        C  0.20249103  0.45326315  0.13839710    -0.30800
H383        H  0.21604400  0.45675924  0.22768709     0.13400
H384        H  0.18929161  0.46677120  0.10093253     0.14000
C385        C  0.17063079  0.14508890  0.67057085    -0.17700
C386        C  0.14162972  0.13876377  0.69262021     0.06400
C387        C  0.10750722  0.13377177  0.71919906     0.08200
C388        C  0.07842758  0.12981244  0.74214825    -0.18600
C389        C  0.04985358  0.11355633  0.97754630    -0.12500
C390        C  0.03883585  0.11554325  0.92781677    -0.14000
C391        C  0.40639038  0.41426399  0.23991849    -0.17700
C392        C  0.37733726  0.40940727  0.21759353     0.06400
C393        C  0.34335811  0.40388205  0.19104173     0.08200
C394        C  0.31446987  0.39775935  0.16890024    -0.18600
C395        C  0.43340091  0.43430685  0.47216395    -0.12500
C396        C  0.44551867  0.43296478  0.42293831    -0.14000
C397        C  0.94353984  0.03149399  0.77294976    -0.12500
C398        C  0.96338829  0.05904435  0.77459936    -0.14000
C399        C  0.97946024  0.20018201  0.80216897    -0.12500
C400        C  0.96451334  0.23133943  0.79980154    -0.14000
C401        C  0.77673119  0.42659988  0.56880644    -0.15600
C402        C  0.76698925  0.40200795  0.52588716    -0.30800
H403        H  0.77421161  0.45765040  0.56098143     0.13400
H404        H  0.77198754  0.37113861  0.53197770     0.14000
C405        C  0.77181822  0.05857799  0.89362564    -0.15600
C406        C  0.78009953  0.04560290  0.83967312    -0.30800
H407        H  0.77495099  0.03931449  0.93150161     0.13400
H408        H  0.78467043  0.56632793  0.78370959     0.14000
C409        C  0.78946329  0.20354661  0.88027455    -0.15600
C410        C  0.77784738  0.23109279  0.84243198    -0.30800
H411        H  0.81659294  0.20499083  0.89748935     0.13400
H412        H  0.75170336  0.22797597  0.82197645     0.14000
C413        C  0.53735814  0.01710729  0.26189316    -0.12500
C414        C  0.52032556  0.48874497  0.26353011    -0.14000
C415        C  0.52390042  0.31704224  0.30579411    -0.12500
C416        C  0.50789023  0.34769655  0.30533163    -0.14000
C417        C  0.72176721  0.15600174  0.03780960    -0.15600
C418        C  0.71576856  0.13099716  0.08304781    -0.30800
H419        H  0.71438478  0.18632415  0.04231499     0.13400
H420        H  0.72035296  0.10022150  0.07724261     0.14000
C421        C  0.70527056  0.00465567  0.33731500    -0.15600
C422        C  0.71276618  0.49901136  0.37819172    -0.30800
H423        H  0.70838853  0.98553394  0.30015168     0.13400
H424        H  0.71079640  0.51864248  0.41495423     0.14000
C425        C  0.70808308  0.32308962  0.34812082    -0.15600
C426        C  0.69433253  0.35348088  0.37699981    -0.30800
H427        H  0.73552641  0.32468449  0.33180545     0.13400
H428        H  0.66601050  0.35352519  0.38870097     0.14000
C429        C  0.58205938  0.16298958  0.78426678    -0.17700
C430        C  0.61115933  0.16027689  0.80685641     0.06400
C431        C  0.64514514  0.15765559  0.83372058     0.08200
C432        C  0.67407914  0.15318972  0.85623718    -0.18600
C433        C  0.48228585  0.09287414  0.72151189    -0.12500
C434        C  0.46577677  0.06252129  0.72218977    -0.14000
C435        C  0.44753847  0.26058132  0.75730680    -0.12500
C436        C  0.46714477  0.23301392  0.75544068    -0.14000
C437        C  0.55462690  0.18190588  0.55064171    -0.12500
C438        C  0.54324973  0.17940897  0.60025508    -0.14000
C439        C  0.80892816  0.40199265  0.34046394    -0.17700
C440        C  0.83755882  0.39501844  0.31820296     0.06400
C441        C  0.87160447  0.38886013  0.29259639     0.08200
C442        C  0.90088704  0.38354852  0.27152273    -0.18600
C443        C  0.03374893  0.28169609  0.25951525    -0.12500
C444        C  0.01467920  0.30961528  0.25496374    -0.14000
C445        C  0.00250528  0.44995871  0.21321631    -0.12500
C446        C  0.01841161  0.48054418  0.21575331    -0.14000
C447        C  0.94465211  0.36330237  0.09055261    -0.12500
C448        C  0.93413802  0.36138274  0.04053773    -0.14000
C449        C  0.99549600  0.83981955  0.24398965     0.87300
C450        C  0.01450766  0.87919949  0.24108321    -0.53000
C451        C  0.99301239  0.90877213  0.22235282     0.10200
C452        C  0.95422427  0.89595408  0.20782715     0.21200
C453        C  0.96259947  0.84562196  0.28336223    -0.53700
C454        C  0.94090688  0.87501948  0.26414145     0.10300
C455        C  0.98036160  0.83356988  0.18248837    -0.53200
C456        C  0.95852071  0.86271011  0.16367242     0.10900
H457        H  0.04243362  0.88341383  0.25323599     0.15400
H458        H  0.93648795  0.91988553  0.19237598     0.01100
H459        H  0.95650161  0.82759120  0.32171989     0.15700
H460        H  0.98585836  0.80796836  0.15657057     0.15500
C461        C  0.48780520  0.70307347  0.73587850     0.87300
C462        C  0.46943605  0.66325982  0.73700133    -0.53000
C463        C  0.49082800  0.63409272  0.71738847     0.10200
C464        C  0.52879192  0.64769138  0.69821741     0.21200
C465        C  0.52209134  0.69807404  0.77190724    -0.53700
C466        C  0.54368319  0.66912732  0.75202259     0.10300
C467        C  0.50056003  0.70936424  0.67245766    -0.53200
C468        C  0.52206698  0.68049419  0.65268844     0.10900
H469        H  0.44194818  0.65855198  0.75177073     0.15400
H470        H  0.54636747  0.62407431  0.68207178     0.01100
H471        H  0.52900291  0.71617824  0.80889123     0.15700
H472        H  0.49334596  0.73453405  0.64562128     0.15500
Zr473      Zr  0.63122730  0.61210030  0.22928875     2.17500
O474        O  0.61795683  0.57274345  0.14371607    -0.50500
O475        O  0.67085879  0.55926151  0.26588924    -0.73700
O476        O  0.67047212  0.62658352  0.14334091    -0.80500
O477        O  0.54951528  0.57175564  0.31303109    -0.82300
O478        O  0.69150457  0.68850056  0.15001320    -0.77900
O479        O  0.58519548  0.56116966  0.23344348    -0.89500
O480        O  0.69036891  0.57495959  0.35677869    -0.75500
O481        O  0.67908982  0.64866692  0.27088148    -0.85000
O482        O  0.62429599  0.60524440  0.33300615    -0.84700
O483        O  0.62103399  0.67862225  0.19753534    -0.71400
O484        O  0.57296198  0.63847225  0.25364451    -0.83600
Zr485      Zr  0.60725741  0.73273228  0.37186939     2.26400
Zr486      Zr  0.66893151  0.71510603  0.24095988     2.06300
Zr487      Zr  0.56730926  0.63176154  0.35795797     2.10000
Zr488      Zr  0.67249576  0.64093661  0.37459669     1.78800
O489        O  0.50208660  0.63586648  0.35245598    -0.92400
O490        O  0.73736440  0.64427413  0.36072919    -0.40200
O491        O  0.61550478  0.66655993  0.40281602    -0.76800
O492        O  0.66536072  0.70759882  0.34556644    -0.95500
O493        O  0.61195792  0.74148161  0.26805123    -0.88800
O494        O  0.55831033  0.69807378  0.32985868    -0.91600
C495        C  0.68718246  0.55118265  0.31449467     1.02100
C496        C  0.55926049  0.55212446  0.26853218     1.15000
C497        C  0.68836598  0.65620383  0.12317739     1.05800
O498        O  0.73406751  0.71745407  0.24920870    -0.93800
O499        O  0.68249720  0.77912673  0.27998397    -0.89500
O500        O  0.65136083  0.78517769  0.36551875    -0.82700
C501        C  0.67431310  0.79725048  0.32705322     1.12500
O502        O  0.54159750  0.68301389  0.13201290    -0.95800
Zr503      Zr  0.56418333  0.70545667  0.22611544     1.88900
O504        O  0.55963599  0.77896787  0.34876567    -0.72400
O505        O  0.66663946  0.76455368  0.16317140    -0.51700
O506        O  0.57643432  0.75274391  0.14763629    -0.96400
O507        O  0.50046981  0.68865926  0.22600120    -0.53600
O508        O  0.53512252  0.76435732  0.26050132    -0.72900
C509        C  0.53777524  0.78536847  0.30634735     0.99400
O510        O  0.61869865  0.77721034  0.45210608    -0.61800
O511        O  0.56433149  0.58035097  0.43276231    -0.56600
O512        O  0.57944267  0.71221917  0.46529927    -0.93200
O513        O  0.55063652  0.65451286  0.45376651    -0.91700
O514        O  0.66263083  0.60563003  0.46686099    -0.92000
O515        O  0.70226468  0.67026810  0.45815737    -0.90800
C516        C  0.55981732  0.68381519  0.48414285     1.18300
H517        H  0.62406199  0.57831906  0.34549314     0.34200
H518        H  0.68439743  0.72210364  0.36387862     0.45000
H519        H  0.53545135  0.70708525  0.34432664     0.38600
H520        H  0.62221180  0.68061033  0.15527586     0.35100
H521        H  0.74726111  0.62672441  0.39144787     0.26800
H522        H  0.69206493  0.76972086  0.15265925     0.32800
H523        H  0.55549136  0.77040069  0.14744953     0.38700
H524        H  0.68425213  0.58927053  0.47208840     0.33100
H525        H  0.53959866  0.56983012  0.43042155     0.32000
H526        H  0.49329963  0.62155008  0.38774355     0.33700
H527        H  0.48848569  0.71115193  0.20692743     0.32700
H528        H  0.68825299  0.69400630  0.46627789     0.36700
H529        H  0.59482078  0.78461216  0.46754188     0.29400
H530        H  0.64062312  0.55930308  0.13384388     0.33600
H531        H  0.52589875  0.70398369  0.11669022     0.36500
H532        H  0.57982479  0.55920733  0.41826858     0.29100
H533        H  0.62985560  0.76133388  0.48370166     0.42000
H534        H  0.73876877  0.71522950  0.29185917     0.32000
H535        H  0.74202096  0.63062860  0.32352770     0.39600
H536        H  0.49278172  0.68991455  0.26753585     0.31500
H537        H  0.65648985  0.75142971  0.12856813     0.31600
H538        H  0.61378476  0.59132133  0.11084282     0.31800
C539        C  0.75481847  0.58983914  0.89023115     0.87300
C540        C  0.74222718  0.58847252  0.95464386    -0.53000
C541        C  0.72546602  0.62127415  0.97300701     0.10200
C542        C  0.72281142  0.65308949  0.92414147     0.21200
C543        C  0.72083212  0.59934246  0.85531170    -0.53700
C544        C  0.70398445  0.63225851  0.87318727     0.10300
C545        C  0.77854295  0.62615509  0.88513701    -0.53200
C546        C  0.76181910  0.65946080  0.90190229     0.10900
H547        H  0.74549547  0.56315110  0.98320416     0.15400
H548        H  0.70901000  0.68003253  0.93794497     0.01100
H549        H  0.71046161  0.58106108  0.82074931     0.15700
H550        H  0.80593153  0.62572054  0.86853815     0.15500
Zr551      Zr  0.84703019  0.94395795  0.74901455     2.17500
O552        O  0.86403836  0.97934257  0.65939670    -0.50500
O553        O  0.81110923  0.99845369  0.78408519    -0.73700
O554        O  0.80269654  0.93823431  0.67115705    -0.80500
O555        O  0.93082152  0.97652681  0.82778778    -0.82300
O556        O  0.78208908  0.87598741  0.66771621    -0.77900
O557        O  0.89448227  0.99234749  0.75094053    -0.89500
O558        O  0.78771492  0.98082618  0.87280046    -0.75500
O559        O  0.79720861  0.90954455  0.78997111    -0.85000
O560        O  0.85369188  0.94843770  0.85252887    -0.84700
O561        O  0.85308358  0.87840250  0.71465158    -0.71400
O562        O  0.90365634  0.91418707  0.77222462    -0.83600
Zr563      Zr  0.86498801  0.81822241  0.88742296     2.26400
Zr564      Zr  0.80330707  0.84373579  0.75802764     2.06300
Zr565      Zr  0.90906797  0.91795464  0.87626808     2.10000
Zr566      Zr  0.80392552  0.91402763  0.89345957     1.78800
O567        O  0.97426030  0.91214818  0.87432472    -0.92400
O568        O  0.73907303  0.91017496  0.88059157    -0.40200
O569        O  0.85938280  0.88382767  0.92042656    -0.76800
O570        O  0.80826237  0.84791139  0.86299772    -0.95500
O571        O  0.85923136  0.81342422  0.78344342    -0.88800
O572        O  0.91507524  0.85227401  0.84568583    -0.91600
C573        C  0.79346890  0.00565371  0.83127975     1.02100
C574        C  0.92166253  0.99805327  0.78405504     1.15000
C575        C  0.78463606  0.91096786  0.64709443     1.05800
O576        O  0.73816484  0.84586840  0.76643886    -0.93800
O577        O  0.78298842  0.78177721  0.80080864    -0.89500
O578        O  0.81868616  0.76805026  0.87923062    -0.82700
C579        C  0.79221947  0.76042794  0.84507347     1.12500
O580        O  0.92944018  0.87423674  0.64728980    -0.95800
Zr581      Zr  0.90875692  0.84818910  0.74188873     1.88900
O582        O  0.91205027  0.77156419  0.86299437    -0.72400
O583        O  0.80407759  0.79619958  0.67986220    -0.51700
O584        O  0.89523464  0.80155750  0.66557608    -0.96400
O585        O  0.97303540  0.86238452  0.73956022    -0.53600
O586        O  0.93752361  0.78879182  0.77546773    -0.72900
C587        C  0.93451458  0.76656261  0.82083950     0.99400
O588        O  0.85186210  0.77081641  0.96554837    -0.61800
O589        O  0.91205565  0.96832717  0.95030898    -0.56600
O590        O  0.89388605  0.83375017  0.98126461    -0.93200
O591        O  0.92387924  0.89118517  0.97125090    -0.91700
O592        O  0.81560228  0.94881031  0.98383022    -0.92000
O593        O  0.77378093  0.88681558  0.97986764    -0.90800
C594        C  0.91420729  0.86099375  0.00065690     1.18300
H595        H  0.85495627  0.97502449  0.86532119     0.34200
H596        H  0.78869515  0.83415893  0.88207958     0.45000
H597        H  0.93767281  0.84200303  0.85947227     0.38600
H598        H  0.85153297  0.87820783  0.67236013     0.35100
H599        H  0.72936286  0.93163191  0.90432185     0.26800
H600        H  0.77933530  0.79631544  0.66409058     0.32800
H601        H  0.91721949  0.78566914  0.66182398     0.38700
H602        H  0.79432464  0.96555914  0.98947750     0.33100
H603        H  0.93804663  0.97342119  0.95528570     0.32000
H604        H  0.98130334  0.91941209  0.83365203     0.33700
H605        H  0.98346280  0.84331980  0.71225292     0.32700
H606        H  0.79156959  0.86882629  0.99749441     0.36700
H607        H  0.87540869  0.76017354  0.97770235     0.29400
H608        H  0.84351162  0.99649226  0.64976576     0.33600
H609        H  0.94242755  0.85281220  0.62802881     0.36500
H610        H  0.90272686  0.99225199  0.93121104     0.29100
H611        H  0.84323512  0.78585774  0.99951402     0.42000
H612        H  0.73319865  0.84180073  0.80882703     0.32000
H613        H  0.73472791  0.91852102  0.83946367     0.39600
H614        H  0.98199454  0.85404092  0.77859440     0.31500
H615        H  0.81889995  0.80828546  0.64830271     0.31600
H616        H  0.86449431  0.95972334  0.62804970     0.31800
C617        C  0.73023304  0.95242643  0.40515352     0.87300
C618        C  0.73762299  0.94578305  0.47122350    -0.53000
C619        C  0.75299998  0.91060489  0.48483573     0.10200
C620        C  0.75912725  0.88532554  0.43050945     0.21200
C621        C  0.76655486  0.94615172  0.37518676    -0.53700
C622        C  0.78158859  0.91109937  0.38828484     0.10300
C623        C  0.70702663  0.91756675  0.38737189    -0.53200
C624        C  0.72212613  0.88238866  0.40091221     0.10900
H625        H  0.73119170  0.96739837  0.50369872     0.15400
H626        H  0.77158341  0.85669784  0.44060236     0.01100
H627        H  0.77929761  0.96757184  0.34631106     0.15700
H628        H  0.68079793  0.92042482  0.36711994     0.15500
C629        C  0.49255594  0.95916246  0.28656374     0.87300
C630        C  0.50977045  0.91891469  0.28691312    -0.53000
C631        C  0.48774099  0.89020908  0.30795925     0.10200
C632        C  0.45022559  0.90460420  0.32701123     0.21200
C633        C  0.45786884  0.95499702  0.25113878    -0.53700
C634        C  0.43558864  0.92643489  0.27251866     0.10300
C635        C  0.48018628  0.96556688  0.34990801    -0.53200
C636        C  0.45791233  0.93719419  0.37103935     0.10900
H637        H  0.53703209  0.91356044  0.27190541     0.15400
H638        H  0.43215068  0.88132905  0.34436227     0.01100
H639        H  0.45126140  0.97328996  0.21344764     0.15700
H640        H  0.48815245  0.99049057  0.37564873     0.15500
C641        C  0.99077192  0.59799473  0.78985104     0.87300
C642        C  0.97110893  0.63672611  0.79266728    -0.53000
C643        C  0.99148042  0.66609053  0.81427413     0.10200
C644        C  0.03023061  0.65386430  0.83073646     0.21200
C645        C  0.02459281  0.60587715  0.75324445    -0.53700
C646        C  0.04553944  0.63490860  0.77483443     0.10300
C647        C  0.00428861  0.59008748  0.85229851    -0.53200
C648        C  0.02506765  0.61917115  0.87364083     0.10900
H649        H  0.94325637  0.64047838  0.77970208     0.15400
H650        H  0.04710990  0.67766134  0.84833622     0.01100
H651        H  0.03216764  0.58884695  0.71539557     0.15700
H652        H  0.99826336  0.56364537  0.87721861     0.15500
Zr653      Zr  0.13122642  0.68954259  0.29069724     2.17500
O654        O  0.11268874  0.72186121  0.38045386    -0.50500
O655        O  0.16845562  0.74387329  0.25382892    -0.73700
O656        O  0.17543653  0.68367502  0.36803811    -0.80500
O657        O  0.04836524  0.72469035  0.21276714    -0.82300
O658        O  0.19613126  0.62160008  0.37304557    -0.77900
O659        O  0.08617992  0.73991329  0.28729962    -0.89500
O660        O  0.19221667  0.72652121  0.16610419    -0.75500
O661        O  0.18057933  0.65541008  0.24985267    -0.85000
O662        O  0.12416349  0.69544003  0.18748429    -0.84700
O663        O  0.12458348  0.62366532  0.32689523    -0.71400
O664        O  0.07411310  0.65999321  0.26986035    -0.83600
Zr665      Zr  0.11138451  0.56657247  0.15460048     2.26400
Zr666      Zr  0.17387531  0.58953092  0.28416547     2.06300
Zr667      Zr  0.06806873  0.66583533  0.16607209     2.10000
Zr668      Zr  0.17314790  0.66106757  0.14624104     1.78800
O669        O  0.00329223  0.65690014  0.17239222    -0.92400
O670        O  0.23838738  0.65759612  0.15157478    -0.40200
O671        O  0.11708017  0.63239862  0.12117895    -0.76800
O672        O  0.16871249  0.59481225  0.17893347    -0.95500
O673        O  0.11788389  0.55960445  0.25848654    -0.88800
O674        O  0.06171522  0.59966840  0.19715597    -0.91600
C675        C  0.18686502  0.75105875  0.20690534     1.02100
C676        C  0.05876947  0.74615798  0.25486332     1.15000
C677        C  0.19362923  0.65645205  0.39264859     1.05800
O678        O  0.23876839  0.58939727  0.27074785    -0.93800
O679        O  0.18967860  0.52568293  0.24741593    -0.89500
O680        O  0.15712449  0.51628436  0.16437977    -0.82700
C681        C  0.18136122  0.50625119  0.20168167     1.12500
O682        O  0.05118783  0.61565638  0.39769678    -0.95800
Zr683      Zr  0.06888101  0.59315395  0.30072794     1.88900
O684        O  0.06339923  0.52049124  0.17739081    -0.72400
O685        O  0.17361941  0.54282897  0.36570164    -0.51700
O686        O  0.08384522  0.54258073  0.37249449    -0.96400
O687        O  0.00480743  0.60591748  0.31035642    -0.53600
O688        O  0.03909102  0.53471015  0.26617174    -0.72900
C689        C  0.04144488  0.51404862  0.21993495     0.99400
O690        O  0.12215859  0.51966383  0.07722755    -0.61800
O691        O  0.06207902  0.71726225  0.09187372    -0.56600
O692        O  0.08421920  0.58576299  0.05990980    -0.93200
O693        O  0.05361226  0.64235516  0.07030726    -0.91700
O694        O  0.15742149  0.69787182  0.05789958    -0.92000
O695        O  0.19873268  0.63367893  0.05750670    -0.90800
C696        C  0.06397569  0.61334305  0.04042725     1.18300
H697        H  0.12342889  0.72221795  0.17421257     0.34200
H698        H  0.18804412  0.58100170  0.16020019     0.45000
H699        H  0.03890388  0.58977810  0.18382110     0.38600
H700        H  0.12632658  0.62310218  0.36915620     0.35100
H701        H  0.24708341  0.67677863  0.12188977     0.26800
H702        H  0.19840590  0.54332610  0.38125749     0.32800
H703        H  0.06075244  0.52946345  0.38175473     0.38700
H704        H  0.17908359  0.71349733  0.04821981     0.33100
H705        H  0.03632479  0.72432453  0.09245446     0.32000
H706        H  0.99333972  0.67685320  0.14531148     0.33700
H707        H  0.99489799  0.58267340  0.33094979     0.32700
H708        H  0.18048223  0.61475254  0.04431747     0.36700
H709        H  0.09811638  0.51196554  0.06295111     0.29400
H710        H  0.13277900  0.73930735  0.39102187     0.33600
H711        H  0.03750037  0.59398241  0.41624030     0.36500
H712        H  0.07459504  0.74020371  0.10781489     0.29100
H713        H  0.13326592  0.53456802  0.04430108     0.42000
H714        H  0.24240904  0.58476560  0.22834801     0.32000
H715        H  0.24453736  0.66926678  0.18971588     0.39600
H716        H  0.99533237  0.60418708  0.26995071     0.31500
H717        H  0.15882253  0.55498091  0.39657649     0.31600
H718        H  0.11231646  0.70129296  0.41134176     0.31800
C719        C  0.25714459  0.70109461  0.62429482     0.87300
C720        C  0.24682843  0.69340742  0.56012640    -0.53000
C721        C  0.23195243  0.65732744  0.55118120     0.10200
C722        C  0.22913553  0.63246243  0.60821986     0.21200
C723        C  0.22261616  0.69370823  0.65936110    -0.53700
C724        C  0.20785155  0.65807980  0.65102109     0.10300
C725        C  0.28239054  0.66764091  0.64055215    -0.53200
C726        C  0.26783024  0.63168802  0.63269528     0.10900
H727        H  0.25144718  0.71475748  0.52541407     0.15400
H728        H  0.21712962  0.60324309  0.60174097     0.01100
H729        H  0.21037193  0.71531367  0.68735592     0.15700
H730        H  0.30952567  0.67200809  0.65657391     0.15500
Zr731      Zr  0.35102505  0.85103980  0.78705125     2.17500
O732        O  0.36672764  0.80941818  0.87077954    -0.50500
O733        O  0.31290778  0.79909295  0.74733301    -0.73700
O734        O  0.30981719  0.85699254  0.87037659    -0.80500
O735        O  0.43567895  0.81960145  0.70763180    -0.82300
O736        O  0.28783381  0.91848467  0.87380366    -0.77900
O737        O  0.39756995  0.80214429  0.78199137    -0.89500
O738        O  0.29313853  0.81771714  0.65702564    -0.75500
O739        O  0.30192060  0.88664486  0.74715590    -0.85000
O740        O  0.35893289  0.84920063  0.68351499    -0.84700
O741        O  0.35834750  0.91564478  0.82510201    -0.71400
O742        O  0.40853189  0.88082139  0.76667790    -0.83600
Zr743      Zr  0.37243485  0.97926709  0.65579458     2.26400
Zr744      Zr  0.30912277  0.95138430  0.78360082     2.06300
Zr745      Zr  0.41522491  0.87944220  0.66255656     2.10000
Zr746      Zr  0.31008500  0.88493321  0.64323253     1.78800
O747        O  0.48020112  0.88687474  0.66808646    -0.92400
O748        O  0.24470025  0.88650093  0.64967625    -0.40200
O749        O  0.36642211  0.91470621  0.61953568    -0.76800
O750        O  0.31506174  0.94964205  0.67857556    -0.95500
O751        O  0.36560830  0.98207166  0.76003553    -0.88800
O752        O  0.42192265  0.94434212  0.69603502    -0.91600
C753        C  0.29679567  0.79252745  0.69850080     1.02100
C754        C  0.42522211  0.79697871  0.74947108     1.15000
C755        C  0.29136746  0.88379191  0.89497754     1.05800
O756        O  0.24390160  0.94832386  0.77931134    -0.93800
O757        O  0.28844945  0.50947734  0.73188576    -0.89500
O758        O  0.32601314  0.52468170  0.65567211    -0.82700
C759        C  0.29854378  0.53129118  0.68855676     1.12500
O760        O  0.43302083  0.91920841  0.89469855    -0.95800
Zr761      Zr  0.41461251  0.94630431  0.79991306     1.89300
O762        O  0.41955300  0.52264971  0.67456021    -0.72400
O763        O  0.30984864  0.99933634  0.86111533    -0.51700
O764        O  0.40253698  0.99268301  0.87726058    -0.96400
O765        O  0.47860148  0.93157157  0.80425245    -0.53600
O766        O  0.44350114  0.50599051  0.76293995    -0.72900
C767        C  0.44074933  0.52847461  0.71782068     0.99400
O768        O  0.36206529  0.02831313  0.57917464    -0.61800
O769        O  0.42011816  0.83169137  0.58499063    -0.56600
O770        O  0.40049655  0.96405676  0.56065885    -0.93200
O771        O  0.43032306  0.90666427  0.56780202    -0.91700
O772        O  0.32426134  0.85387177  0.55062973    -0.92000
O773        O  0.28208934  0.91953403  0.56129159    -0.90800
C774        C  0.42045618  0.93711430  0.53957039     1.18300
H775        H  0.35993772  0.82290341  0.66945657     0.34200
H776        H  0.29570893  0.96362141  0.65987924     0.45000
H777        H  0.44472332  0.95476514  0.68278229     0.38600
H778        H  0.35675640  0.91497821  0.86738725     0.35100
H779        H  0.23631635  0.86930800  0.61802357     0.26800
H780        H  0.28470150  0.00033769  0.87531954     0.32800
H781        H  0.42509502  0.00771920  0.88126894     0.38700
H782        H  0.30087935  0.84454407  0.53570423     0.33100
H783        H  0.44498200  0.82175322  0.58784053     0.32000
H784        H  0.48907178  0.88083835  0.62823341     0.33700
H785        H  0.48959189  0.95402274  0.82419992     0.32700
H786        H  0.30054823  0.93842587  0.54763157     0.36700
H787        H  0.38613740  0.03660488  0.56508252     0.29400
H788        H  0.34530888  0.79302693  0.87891692     0.33600
H789        H  0.44964749  0.93850417  0.91166932     0.36500
H790        H  0.40480770  0.80952530  0.59768561     0.29100
H791        H  0.35117020  0.01435742  0.54592505     0.42000
H792        H  0.23850907  0.94504664  0.73716124     0.32000
H793        H  0.23870323  0.87211213  0.68640313     0.39600
H794        H  0.48720541  0.93399785  0.76320101     0.31500
H795        H  0.32325944  0.98681539  0.89368735     0.31600
H796        H  0.36876340  0.82681791  0.90483876     0.31800
C797        C  0.22676107  0.84344339  0.13087351     0.87300
C798        C  0.23658592  0.85010927  0.06580352    -0.53000
C799        C  0.25077777  0.88609917  0.05311968     0.10200
C800        C  0.25329797  0.91227622  0.10773424     0.21200
C801        C  0.26137425  0.85229458  0.16436932    -0.53700
C802        C  0.27528971  0.88818768  0.15225812     0.10300
C803        C  0.20098167  0.87667901  0.14520562    -0.53200
C804        C  0.21492713  0.91281862  0.13401163     0.10900
H805        H  0.23244193  0.82804828  0.03297806     0.15400
H806        H  0.26471511  0.94157674  0.09817427     0.01100
H807        H  0.27406213  0.83170586  0.19432268     0.15700
H808        H  0.17426978  0.87204924  0.16343293     0.15500
C809        C  0.27400241  0.87290638  0.95193407    -0.15600
C810        C  0.26399828  0.89855706  0.99333484    -0.30800
H811        H  0.27257073  0.84201765  0.96200715     0.13400
H812        H  0.26805031  0.92941787  0.98500902     0.14000
C813        C  0.28246965  0.75298090  0.68852028    -0.15600
C814        C  0.27267384  0.74108765  0.63459149    -0.30800
H815        H  0.28072209  0.73281520  0.72560681     0.13400
H816        H  0.27524599  0.76086534  0.59714882     0.14000
C817        C  0.28915931  0.59616009  0.64376736    -0.15600
C818        C  0.27623447  0.56575793  0.67489670    -0.30800
H819        H  0.31718316  0.59652307  0.63021496     0.13400
H820        H  0.24916786  0.56694872  0.69281499     0.14000
C821        C  0.21198151  0.66763028  0.44754872    -0.15600
C822        C  0.21881401  0.64322339  0.49301949    -0.30800
H823        H  0.21593166  0.69859095  0.45296753     0.13400
H824        H  0.21212956  0.61261763  0.48921433     0.14000
C825        C  0.20172260  0.79069479  0.19760442    -0.15600
C826        C  0.21199190  0.80318145  0.14357875    -0.30800
H827        H  0.20278752  0.81040131  0.23436316     0.13400
H828        H  0.20974097  0.78358069  0.10680253     0.14000
C829        C  0.20813251  0.97900007  0.17454806    -0.15600
C830        C  0.19405776  0.94845573  0.14628334    -0.30800
H831        H  0.23577055  0.97777750  0.18957334     0.13400
H832        H  0.16559035  0.94814691  0.13595539     0.14000
C833        C  0.17365091  0.64805459  0.67746018    -0.17700
C834        C  0.14460833  0.64505323  0.70098676     0.06400
C835        C  0.11045950  0.64421405  0.72864760     0.08200
C836        C  0.08099526  0.64230080  0.75098156    -0.18600
C837        C  0.05252250  0.61299540  0.98036517    -0.12500
C838        C  0.04099006  0.61624053  0.93113337    -0.14000
C839        C  0.40067293  0.91904058  0.24736641    -0.17700
C840        C  0.37151646  0.91397926  0.22560669     0.06400
C841        C  0.33751743  0.90784826  0.19959174     0.08200
C842        C  0.30882625  0.90075305  0.17754545    -0.18600
C843        C  0.43196818  0.94000585  0.47939242    -0.12500
C844        C  0.44295695  0.93871667  0.42953310    -0.14000
C845        C  0.94979019  0.53803881  0.76253353    -0.12500
C846        C  0.96834970  0.56627442  0.76884736    -0.14000
C847        C  0.97592949  0.70415839  0.82208841    -0.12500
C848        C  0.95798598  0.73336204  0.82400997    -0.14000
C849        C  0.76664034  0.92168849  0.59118356    -0.15600
C850        C  0.76454122  0.89765907  0.54503899    -0.30800
H851        H  0.75943154  0.95200831  0.58571335     0.13400
H852        H  0.77440301  0.86812284  0.55009127     0.14000
C853        C  0.77283642  0.55252694  0.87284327    -0.15600
C854        C  0.78567223  0.54456649  0.81870002    -0.30800
H855        H  0.77509891  0.53056576  0.90738876     0.13400
H856        H  0.77819937  0.06509524  0.80184150     0.14000
C857        C  0.78048610  0.69750570  0.89691779    -0.15600
C858        C  0.77041734  0.72490484  0.85753279    -0.30800
H859        H  0.80580867  0.70056030  0.91990561     0.13400
H860        H  0.74638815  0.72015204  0.83163629     0.14000
C861        C  0.53935933  0.51705728  0.25908552    -0.12500
C862        C  0.51692231  0.99002781  0.26610499    -0.14000
C863        C  0.51535629  0.81940119  0.30988229    -0.12500
C864        C  0.49999541  0.85033179  0.31095975    -0.14000
C865        C  0.70858636  0.62229061  0.03261568    -0.15600
C866        C  0.70563055  0.65482351  0.06401855    -0.30800
H867        H  0.69978700  0.59485429  0.05219584     0.13400
H868        H  0.71642904  0.68180440  0.04574429     0.14000
C869        C  0.70216306  0.51147450  0.32414474    -0.15600
C870        C  0.71403554  0.99191431  0.39182038    -0.30800
H871        H  0.70334662  0.49174863  0.28741763     0.13400
H872        H  0.70963841  0.01095138  0.42877370     0.14000
C873        C  0.69250193  0.83472660  0.33725577    -0.15600
C874        C  0.70382698  0.84485607  0.39081456    -0.30800
H875        H  0.69828820  0.85359701  0.29968378     0.13400
H876        H  0.70142439  0.82441964  0.42745745     0.14000
C877        C  0.57824843  0.66132464  0.77797237    -0.17700
C878        C  0.60716282  0.65641187  0.80057898     0.06400
C879        C  0.64105509  0.65059406  0.82699492     0.08200
C880        C  0.66993620  0.64396627  0.84872841    -0.18600
C881        C  0.47766815  0.59447623  0.71528545    -0.12500
C882        C  0.46239159  0.56335859  0.71591611    -0.14000
C883        C  0.44590992  0.76272280  0.75875616    -0.12500
C884        C  0.46470318  0.73461967  0.75491370    -0.14000
C885        C  0.54784578  0.68388964  0.54416494    -0.12500
C886        C  0.53693953  0.68176645  0.59408172    -0.14000
C887        C  0.81589255  0.90021256  0.36434903    -0.17700
C888        C  0.84472962  0.89400102  0.34231010     0.06400
C889        C  0.87841798  0.88836088  0.31529736     0.08200
C890        C  0.90705883  0.88321123  0.29197047    -0.18600
C891        C  0.03809892  0.78015220  0.26483546    -0.12500
C892        C  0.01891828  0.80803549  0.26199053    -0.14000
C893        C  0.00663391  0.94821071  0.21900559    -0.12500
C894        C  0.02270586  0.97883824  0.21945411    -0.14000
C895        C  0.94025405  0.86068148  0.10807317    -0.12500
C896        C  0.92701172  0.85862676  0.05996276    -0.14000
loop_ 
_geom_bond_atom_site_label_1 
_geom_bond_atom_site_label_2 
_geom_bond_distance 
_geom_bond_site_symmetry_2 
_ccdc_geom_bond_type 
C1            C2   1.527   1_655  S
C1            C7   1.531       .  S
C1            C5   1.531       .  S
C1          C444   1.458   1_655  S
C2            H9   1.087       .  S
C2            C3   1.362   1_455  D
C3            C4   1.546       .  S
C3          C445   1.445   1_655  S
C4            C8   1.544       .  S
C4            C6   1.542       .  S
C4           H10   1.111       .  S
C5           H11   1.087       .  S
C5            C6   1.365       .  D
C6          C442   1.441       .  S
C7           H12   1.087       .  S
C7            C8   1.359       .  D
C8          C447   1.446       .  S
C13          C14   1.526       .  S
C13          C19   1.531       .  S
C13          C17   1.530       .  S
C13         C436   1.458       .  S
C14          H21   1.087       .  S
C14          C15   1.362       .  D
C15          C16   1.547       .  S
C15         C433   1.447       .  S
C16          C20   1.543       .  S
C16          C18   1.543       .  S
C16          H22   1.111       .  S
C17          H23   1.087       .  S
C17          C18   1.365       .  D
C18         C429   1.440       .  S
C19          H24   1.087       .  S
C19          C20   1.359       .  D
C20         C438   1.443       .  S
Zr25         O26   2.444       .  S
Zr25         O27   2.467       .  S
Zr25         O28   2.431       .  S
Zr25         O31   2.436       .  S
Zr25         O33   2.383       .  S
Zr25         O34   2.373       .  S
Zr25         O35   2.418       .  S
Zr25         O36   2.408       .  S
O26          H82   0.991       .  S
O26          H90   0.990       .  S
O27          C47   1.289       .  A
O28          C49   1.282       .  A
O29         Zr39   2.414       .  S
O29          C48   1.279       .  A
O30         Zr38   2.454       .  S
O30          C49   1.287       .  A
O31          C48   1.283       .  A
O32         Zr40   2.410       .  S
O32          C47   1.280       .  A
O33         Zr38   2.403       .  S
O33         Zr40   2.383       .  S
O34         Zr39   2.381       .  S
O34         Zr40   2.377       .  S
O34          H69   0.965       .  S
O35         Zr38   2.402       .  S
O35         Zr55   2.405       .  S
O35          H72   0.965       .  S
O36         Zr39   2.384       .  S
O36         Zr55   2.398       .  S
Zr37         O62   2.441       .  S
Zr37         O56   2.447       .  S
Zr37         O64   2.468       .  S
Zr37         O52   2.445       .  S
Zr37         O43   2.393       .  S
Zr37         O44   2.414       .  S
Zr37         O45   2.387       .  S
Zr37         O46   2.387       .  S
Zr38         O57   2.436       .  S
Zr38         O50   2.434       .  S
Zr38         O51   2.445       .  S
Zr38         O44   2.404       .  S
Zr38         O45   2.401       .  S
Zr39         O41   2.435       .  S
Zr39         O63   2.441       .  S
Zr39         O65   2.406       .  S
Zr39         O43   2.392       .  S
Zr39         O46   2.392       .  S
Zr40         O66   2.436       .  S
Zr40         O67   2.435       .  S
Zr40         O42   2.435       .  S
Zr40         O43   2.383       .  S
Zr40         O44   2.395       .  S
O41          H78   0.990       .  S
O42          H73   0.990       .  S
O42          H87   0.990       .  S
O44          H70   0.965       .  S
O45         Zr55   2.378       .  S
O46         Zr55   2.384       .  S
O46          H71   0.966       .  S
C47         C421   1.486       .  S
C48         C413   1.430       .  S
C49         C418   1.479       .  S
O50          H86   0.990       .  S
O51          C53   1.287       .  A
O52          C53   1.287       .  A
C53         C425   1.485       .  S
O54         Zr55   2.441       .  S
O54          H83   0.990       .  S
Zr55         O58   2.437       .  S
Zr55         O59   2.440       .  S
Zr55         O60   2.439       .  S
O56          C61   1.284       .  A
O57          H74   0.990       .  S
O57          H89   0.990       .  S
O58          H75   0.990       .  S
O59          H79   0.990       .  S
O59          H88   0.990       .  S
O60          C61   1.283       .  A
C61         C415   1.448       .  S
O62          H81   0.990       .  S
O62          H85   0.990       .  S
O63          H77   0.990       .  S
O63          H84   0.990       .  S
O64          C68   1.289       .  A
O65          C68   1.278       .  A
O66          H76   0.990       .  S
O67          H80   0.990       .  S
C68         C437   1.437       .  S
C91          C92   1.536       .  S
C91          C97   1.531       .  S
C91          C95   1.529       .  S
C91         C405   1.509       .  S
C92          H99   1.084   1_556  S
C92          C93   1.374       .  D
C93          C94   1.548       .  S
C93         C417   1.500   1_556  S
C94          C98   1.545       .  S
C94          C96   1.539       .  S
C94         H100   1.111       .  S
C95         H101   1.087       .  S
C95          C96   1.358       .  D
C96         C432   1.439       .  S
C97         H102   1.086       .  S
C97          C98   1.364       .  D
C98         C409   1.476       .  S
Zr103       O104   2.441       .  S
Zr103       O105   2.463       .  S
Zr103       O106   2.441       .  S
Zr103       O109   2.430       .  S
Zr103       O111   2.383       .  S
Zr103       O112   2.380       .  S
Zr103       O113   2.417       .  S
Zr103       O114   2.412       .  S
O104        H160   0.990       .  S
O104        H168   0.990       .  S
O105        C125   1.287       .  A
O106        C127   1.285       .  A
O107       Zr117   2.412       .  S
O107        C126   1.279       .  A
O108       Zr116   2.473       .  S
O108        C127   1.291       .  A
O109        C126   1.282       .  A
O110       Zr118   2.394       .  S
O110        C125   1.278       .  A
O111       Zr116   2.402       .  S
O111       Zr118   2.380       .  S
O112       Zr117   2.383       .  S
O112       Zr118   2.373       .  S
O112        H147   0.966       .  S
O113       Zr116   2.400       .  S
O113       Zr133   2.408       .  S
O113        H150   0.965       .  S
O114       Zr117   2.386       .  S
O114       Zr133   2.402       .  S
Zr115       O140   2.441       .  S
Zr115       O134   2.443       .  S
Zr115       O142   2.468       .  S
Zr115       O130   2.430       .  S
Zr115       O121   2.395       .  S
Zr115       O122   2.415       .  S
Zr115       O123   2.390       .  S
Zr115       O124   2.381       .  S
Zr116       O135   2.435       .  S
Zr116       O128   2.434       .  S
Zr116       O129   2.452       .  S
Zr116       O122   2.406       .  S
Zr116       O123   2.404       .  S
Zr117       O119   2.435       .  S
Zr117       O141   2.442       .  S
Zr117       O143   2.414       .  S
Zr117       O121   2.393       .  S
Zr117       O124   2.386       .  S
Zr118       O144   2.435       .  S
Zr118       O145   2.434       .  S
Zr118       O120   2.437       .  S
Zr118       O121   2.386       .  S
Zr118       O122   2.375       .  S
O119        H156   0.990       .  S
O120        H151   0.990       .  S
O120        H165   0.990       .  S
O122        H148   0.965       .  S
O123       Zr133   2.377       .  S
O124       Zr133   2.385       .  S
O124        H149   0.966       .  S
C125        C854   1.486       .  S
C126        C845   1.426       .  S
C127        C401   1.494       .  S
O128        H164   0.990       .  S
O129        C131   1.288       .  A
O130        C131   1.285       .  A
C131        C410   1.482       .  S
O132       Zr133   2.438       .  S
O132        H161   0.990       .  S
Zr133       O136   2.436       .  S
Zr133       O137   2.440       .  S
Zr133       O138   2.433       .  S
O134        C139   1.283       .  A
O135        H152   0.990       .  S
O135        H167   0.990       .  S
O136        H153   0.990       .  S
O137        H157   0.990       .  S
O137        H166   0.990       .  S
O138        C139   1.282       .  A
C139        C400   1.443       .  S
O140        H159   0.990       .  S
O140        H163   0.990       .  S
O141        H155   0.991       .  S
O141        H162   0.990       .  S
O142        C146   1.288       .  A
O143        C146   1.279       .  A
O144        H154   0.990       .  S
O145        H158   0.990       .  S
C146        C448   1.440   1_556  S
C169        C170   1.547       .  S
C169        C175   1.534       .  S
C169        C173   1.531       .  S
C169        C422   1.520       .  S
C170        H177   1.084       .  S
C170        C171   1.376       .  D
C171        C172   1.548       .  S
C171        C402   1.507       .  S
C172        C176   1.546       .  S
C172        C174   1.538       .  S
C172        H178   1.111       .  S
C173        H179   1.087       .  S
C173        C174   1.360       .  D
C174        C439   1.440       .  S
C175        H180   1.086       .  S
C175        C176   1.366       .  D
C176        C426   1.485       .  S
C181        C182   1.529       .  S
C181        C187   1.533       .  S
C181        C185   1.533       .  S
C181        C414   1.467       .  S
C182        H189   1.087       .  S
C182        C183   1.363       .  D
C183        C184   1.549       .  S
C183        C416   1.453       .  S
C184        C188   1.544       .  S
C184        C186   1.545       .  S
C184        H190   1.111       .  S
C185        H191   1.086       .  S
C185        C186   1.366       .  D
C186        C391   1.448       .  S
C187        H192   1.087       .  S
C187        C188   1.360       .  D
C188        C396   1.446       .  S
C193        C194   1.528       .  S
C193        C199   1.530   1_655  S
C193        C197   1.531   1_655  S
C193        C398   1.460       .  S
C194        H201   1.087       .  S
C194        C195   1.362       .  D
C195        C196   1.547   1_655  S
C195        C399   1.448       .  S
C196        C200   1.544       .  S
C196        C198   1.543       .  S
C196        H202   1.111       .  S
C197        H203   1.087       .  S
C197        C198   1.365       .  D
C198        C388   1.443       .  S
C199        H204   1.087   1_455  S
C199        C200   1.359       .  D
C200        C390   1.444       .  S
Zr205       O206   2.442       .  S
Zr205       O207   2.459       .  S
Zr205       O208   2.437       .  S
Zr205       O211   2.423       .  S
Zr205       O213   2.380       .  S
Zr205       O214   2.379       .  S
Zr205       O215   2.412       .  S
Zr205       O216   2.408       .  S
O206        H262   0.990       .  S
O206        H270   0.990       .  S
O207        C227   1.288       .  A
O208        C229   1.284       .  A
O209       Zr219   2.413       .  S
O209        C228   1.279       .  A
O210       Zr218   2.467       .  S
O210        C229   1.290       .  A
O211        C228   1.280       .  A
O212       Zr220   2.406       .  S
O212        C227   1.280       .  A
O213       Zr218   2.401       .  S
O213       Zr220   2.383       .  S
O214       Zr219   2.385       .  S
O214       Zr220   2.376       .  S
O214        H249   0.966       .  S
O215       Zr218   2.401       .  S
O215       Zr235   2.402       .  S
O215        H252   0.965       .  S
O216       Zr219   2.385       .  S
O216       Zr235   2.401       .  S
Zr217       O242   2.441       .  S
Zr217       O236   2.444       .  S
Zr217       O244   2.467       .  S
Zr217       O232   2.438       .  S
Zr217       O223   2.389       .  S
Zr217       O224   2.413       .  S
Zr217       O225   2.388       .  S
Zr217       O226   2.385       .  S
Zr218       O237   2.435       .  S
Zr218       O230   2.435       .  S
Zr218       O231   2.452       .  S
Zr218       O224   2.406       .  S
Zr218       O225   2.402       .  S
Zr219       O221   2.436   1_455  S
Zr219       O243   2.439       .  S
Zr219       O245   2.411       .  S
Zr219       O223   2.391       .  S
Zr219       O226   2.386       .  S
Zr220       O246   2.437       .  S
Zr220       O247   2.435       .  S
Zr220       O222   2.434       .  S
Zr220       O223   2.380       .  S
Zr220       O224   2.388       .  S
O221        H258   0.990       .  S
O222        H253   0.990       .  S
O222        H267   0.990       .  S
O224        H250   0.965       .  S
O225       Zr235   2.376       .  S
O226       Zr235   2.384       .  S
O226        H251   0.966       .  S
C227        C377   1.485       .  S
C228        C443   1.424       .  S
C229        C373   1.488       .  S
O230        H266   0.990       .  S
O231        C233   1.288       .  A
O232        C233   1.286       .  A
C233        C829   1.485   1_545  S
O234       Zr235   2.442       .  S
O234        H263   0.990       .  S
Zr235       O238   2.439       .  S
Zr235       O239   2.439       .  S
Zr235       O240   2.435       .  S
O236        C241   1.284       .  A
O237        H254   0.990       .  S
O237        H269   0.990       .  S
O238        H255   0.990       .  S
O239        H259   0.990   1_455  S
O239        H268   0.989   1_455  S
O240        C241   1.283       .  A
C241        C894   1.443   1_545  S
O242        H261   0.990       .  S
O242        H265   0.991       .  S
O243        H257   0.990       .  S
O243        H264   0.990       .  S
O244        C248   1.288       .  A
O245        C248   1.278       .  A
O246        H256   0.990       .  S
O247        H260   0.990       .  S
C248        C389   1.438   1_554  S
C271        C272   1.541       .  S
C271        C277   1.530       .  S
C271        C275   1.532       .  S
C271        C366   1.511       .  S
C272        H279   1.084       .  S
C272        C273   1.373       .  D
C273        C274   1.549       .  S
C273        C374   1.503       .  S
C274        C278   1.545       .  S
C274        C276   1.540       .  S
C274        H280   1.111       .  S
C275        H281   1.087       .  S
C275        C276   1.362       .  D
C276        C385   1.443       .  S
C277        H282   1.087       .  S
C277        C278   1.362       .  D
C278        C369   1.476       .  S
Zr283       O284   2.441       .  S
Zr283       O285   2.463       .  S
Zr283       O286   2.442       .  S
Zr283       O289   2.423       .  S
Zr283       O291   2.379       .  S
Zr283       O292   2.378       .  S
Zr283       O293   2.411       .  S
Zr283       O294   2.409       .  S
O284        H340   0.990       .  S
O284        H348   0.990       .  S
O285        C305   1.289       .  A
O286        C307   1.284       .  A
O287       Zr297   2.417       .  S
O287        C306   1.280       .  A
O288       Zr296   2.451       .  S
O288        C307   1.287       .  A
O289        C306   1.281       .  A
O290       Zr298   2.404       .  S
O290        C305   1.279       .  A
O291       Zr296   2.399       .  S
O291       Zr298   2.384       .  S
O292       Zr297   2.382       .  S
O292       Zr298   2.377       .  S
O292        H327   0.965       .  S
O293       Zr296   2.397       .  S
O293       Zr313   2.403       .  S
O293        H330   0.965       .  S
O294       Zr297   2.386       .  S
O294       Zr313   2.399       .  S
Zr295       O320   2.440       .  S
Zr295       O322   2.473       .  S
Zr295       O762   2.443       .  S
Zr295       O758   2.447       .  S
Zr295       O301   2.393       .  S
Zr295       O302   2.415       .  S
Zr295       O303   2.386       .  S
Zr295       O304   2.384       .  S
Zr296       O315   2.435       .  S
Zr296       O308   2.435       .  S
Zr296       O757   2.435       .  S
Zr296       O302   2.405       .  S
Zr296       O303   2.401       .  S
Zr297       O299   2.436       .  S
Zr297       O321   2.441       .  S
Zr297       O323   2.405       .  S
Zr297       O301   2.393       .  S
Zr297       O304   2.392       .  S
Zr298       O324   2.436       .  S
Zr298       O325   2.434       .  S
Zr298       O300   2.436       .  S
Zr298       O301   2.383       .  S
Zr298       O302   2.384       .  S
O299        H336   0.990       .  S
O300        H331   0.990       .  S
O300        H345   0.990       .  S
O302        H328   0.965       .  S
O303       Zr313   2.377       .  S
O304       Zr313   2.385       .  S
O304        H329   0.966       .  S
C305        C365   1.482       .  S
C306        C435   1.425       .  S
C307        C361   1.484       .  S
O308        H344   0.990       .  S
O309       Zr744   2.444   1_545  S
O309        C311   1.287       .  A
O310       Zr743   2.437   1_545  S
O310        C311   1.286       .  A
C311        C370   1.483       .  S
O312       Zr313   2.441       .  S
O312        H341   0.990       .  S
Zr313       O316   2.438       .  S
Zr313       O317   2.439       .  S
Zr313       O766   2.432       .  S
O314       Zr743   2.446   1_545  S
O314        C319   1.284       .  A
O315        H332   0.990       .  S
O315        H347   0.990       .  S
O316        H333   0.990       .  S
O317        H337   0.990       .  S
O317        H346   0.990       .  S
O318       Zr761   2.433   1_545  S
O318        C319   1.281       .  A
C319        C434   1.443       .  S
O320        H339   0.990       .  S
O320        H343   0.990       .  S
O321        H335   0.990       .  S
O321        H342   0.990       .  S
O322        C326   1.289       .  A
O323        C326   1.277       .  A
O324        H334   0.990       .  S
O325        H338   0.990       .  S
C326        C395   1.439       .  S
C349        C350   1.541       .  S
C349        C355   1.534       .  S
C349        C353   1.533       .  S
C349        C378   1.513       .  S
C350        H357   1.085       .  S
C350        C351   1.370       .  D
C351        C352   1.542       .  S
C351        C362   1.496   1_554  S
C352        C356   1.542       .  S
C352        C354   1.542       .  S
C352        H358   1.111       .  S
C353        H359   1.086       .  S
C353        C354   1.363       .  D
C354        C394   1.447       .  S
C355        H360   1.086       .  S
C355        C356   1.365       .  D
C356        C382   1.475       .  S
C361        H363   1.085       .  S
C361        C362   1.350       .  D
C362        H364   1.086       .  S
C365        H367   1.086       .  S
C365        C366   1.352       .  D
C366        H368   1.087       .  S
C369        H371   1.086       .  S
C369        C370   1.345       .  D
C370        H372   1.087       .  S
C373        H375   1.084       .  S
C373        C374   1.352       .  D
C374        H376   1.086       .  S
C377        H379   1.086       .  S
C377        C378   1.352       .  D
C378        H380   1.087       .  S
C381        H383   1.087       .  S
C381        C382   1.344       .  D
C381        C681   1.480       .  S
C382        H384   1.086       .  S
C385        C386   1.207       .  T
C386        C387   1.414       .  S
C387        C388   1.207       .  T
C389        C390   1.208       .  T
C391        C392   1.210       .  T
C392        C393   1.418       .  S
C393        C394   1.209       .  T
C395        C396   1.209       .  T
C397        C574   1.426   1_545  S
C397        C398   1.201       .  T
C399        C400   1.210       .  T
C401        H403   1.085       .  S
C401        C402   1.353       .  D
C402        H404   1.086       .  S
C405        H407   1.087       .  S
C405        C406   1.349       .  D
C406        H856   1.087       .  S
C406        C573   1.478       .  S
H408        C854   1.086       .  S
C409        H411   1.086       .  S
C409        C410   1.345       .  D
C410        H412   1.087       .  S
C413        C862   1.203   1_545  T
C414        C861   1.205       .  T
C415        C416   1.213       .  T
C417        H419   1.086       .  S
C417        C418   1.350       .  D
C418        H420   1.083       .  S
C421        H423   1.086   1_545  S
C421        C870   1.352   1_545  D
C422        H424   1.086       .  S
C422        C869   1.358       .  D
C425        H427   1.087       .  S
C425        C426   1.345       .  D
C426        H428   1.087       .  S
C429        C430   1.205       .  T
C430        C431   1.411       .  S
C431        C432   1.205       .  T
C433        C434   1.210       .  T
C435        C436   1.200       .  T
C437        C438   1.207       .  T
C439        C440   1.205       .  T
C440        C441   1.411       .  S
C441        C442   1.205       .  T
C443        C444   1.200       .  T
C445        C446   1.208       .  T
C446        C689   1.439       .  S
C447        C448   1.209       .  T
C449        C450   1.527   1_655  S
C449        C455   1.530       .  S
C449        C453   1.531       .  S
C449        C892   1.456   1_655  S
C450        H457   1.087       .  S
C450        C451   1.361   1_455  D
C451        C452   1.547       .  S
C451        C893   1.448   1_655  S
C452        C456   1.543       .  S
C452        C454   1.541       .  S
C452        H458   1.111       .  S
C453        H459   1.087       .  S
C453        C454   1.365       .  D
C454        C890   1.439       .  S
C455        H460   1.087       .  S
C455        C456   1.359       .  D
C456        C895   1.443       .  S
C461        C462   1.529       .  S
C461        C467   1.531       .  S
C461        C465   1.529       .  S
C461        C884   1.457       .  S
C462        H469   1.087       .  S
C462        C463   1.363       .  D
C463        C464   1.547       .  S
C463        C881   1.448       .  S
C464        C468   1.543       .  S
C464        C466   1.544       .  S
C464        H470   1.111       .  S
C465        H471   1.087       .  S
C465        C466   1.364       .  D
C466        C877   1.443       .  S
C467        H472   1.087       .  S
C467        C468   1.359       .  D
C468        C886   1.443       .  S
Zr473       O474   2.442       .  S
Zr473       O475   2.482       .  S
Zr473       O476   2.482       .  S
Zr473       O479   2.448       .  S
Zr473       O481   2.386       .  S
Zr473       O482   2.384       .  S
Zr473       O483   2.421       .  S
Zr473       O484   2.420       .  S
O474        H530   0.990       .  S
O474        H538   0.990       .  S
O475        C495   1.292       .  A
O476        C497   1.293       .  A
O477       Zr487   2.410       .  S
O477        C496   1.279       .  A
O478       Zr486   2.426       .  S
O478        C497   1.282       .  A
O479        C496   1.285       .  A
O480       Zr488   2.408       .  S
O480        C495   1.279       .  A
O481       Zr486   2.407       .  S
O481       Zr488   2.385       .  S
O482       Zr487   2.383       .  S
O482       Zr488   2.380       .  S
O482        H517   0.965       .  S
O483       Zr486   2.403       .  S
O483       Zr503   2.404       .  S
O483        H520   0.965       .  S
O484       Zr487   2.392       .  S
O484       Zr503   2.403       .  S
Zr485       O510   2.440       .  S
Zr485       O504   2.440       .  S
Zr485       O512   2.456       .  S
Zr485       O500   2.438       .  S
Zr485       O491   2.394       .  S
Zr485       O492   2.409       .  S
Zr485       O493   2.385       .  S
Zr485       O494   2.386       .  S
Zr486       O505   2.440       .  S
Zr486       O498   2.435       .  S
Zr486       O499   2.440       .  S
Zr486       O492   2.396       .  S
Zr486       O493   2.393       .  S
Zr487       O489   2.437       .  S
Zr487       O511   2.439       .  S
Zr487       O513   2.410       .  S
Zr487       O491   2.395       .  S
Zr487       O494   2.385       .  S
Zr488       O514   2.437       .  S
Zr488       O515   2.437       .  S
Zr488       O490   2.437       .  S
Zr488       O491   2.390       .  S
Zr488       O492   2.393       .  S
O489        H526   0.990       .  S
O490        H521   0.990       .  S
O490        H535   0.990       .  S
O492        H518   0.965       .  S
O493       Zr503   2.377       .  S
O494       Zr503   2.382       .  S
O494        H519   0.965       .  S
C495        C869   1.491       .  S
C496        C861   1.433       .  S
C497        C866   1.492       .  S
O498        H534   0.990       .  S
O499        C501   1.285       .  A
O500        C501   1.285       .  A
C501        C873   1.476       .  S
O502       Zr503   2.442       .  S
O502        H531   0.990       .  S
Zr503       O506   2.439       .  S
Zr503       O507   2.440       .  S
Zr503       O508   2.439       .  S
O504        C509   1.283       .  A
O505        H522   0.990       .  S
O505        H537   0.990       .  S
O506        H523   0.990       .  S
O507        H527   0.990       .  S
O507        H536   0.989       .  S
O508        C509   1.283       .  A
C509        C863   1.443       .  S
O510        H529   0.990       .  S
O510        H533   0.991       .  S
O511        H525   0.990       .  S
O511        H532   0.990       .  S
O512        C516   1.286       .  A
O513        C516   1.278       .  A
O514        H524   0.990       .  S
O515        H528   0.990       .  S
C516        C885   1.436       .  S
C539        C540   1.539       .  S
C539        C545   1.530       .  S
C539        C543   1.531       .  S
C539        C853   1.508       .  S
C540        H547   1.087       .  S
C540        C541   1.362       .  D
C541        C542   1.553       .  S
C541        C865   1.495   1_556  S
C542        C546   1.550       .  S
C542        C544   1.543       .  S
C542        H548   1.110       .  S
C543        H549   1.087       .  S
C543        C544   1.363       .  D
C544        C880   1.443       .  S
C545        H550   1.086       .  S
C545        C546   1.365       .  D
C546        C857   1.483       .  S
Zr551       O552   2.441       .  S
Zr551       O553   2.449       .  S
Zr551       O554   2.438       .  S
Zr551       O557   2.425       .  S
Zr551       O559   2.377       .  S
Zr551       O560   2.380       .  S
Zr551       O561   2.410       .  S
Zr551       O562   2.405       .  S
O552        H608   0.990       .  S
O552        H616   0.990       .  S
O553        C573   1.285   1_565  A
O554        C575   1.284       .  A
O555       Zr565   2.419       .  S
O555        C574   1.280       .  A
O556       Zr564   2.457       .  S
O556        C575   1.288       .  A
O557        C574   1.281       .  A
O558       Zr566   2.418       .  S
O558        C573   1.282   1_565  A
O559       Zr564   2.400       .  S
O559       Zr566   2.379       .  S
O560       Zr565   2.377       .  S
O560       Zr566   2.375       .  S
O560        H595   0.965       .  S
O561       Zr564   2.402       .  S
O561       Zr581   2.402       .  S
O561        H598   0.966       .  S
O562       Zr565   2.385       .  S
O562       Zr581   2.392       .  S
Zr563       O588   2.442       .  S
Zr563       O582   2.449       .  S
Zr563       O590   2.463       .  S
Zr563       O578   2.445       .  S
Zr563       O569   2.400       .  S
Zr563       O570   2.413       .  S
Zr563       O571   2.388       .  S
Zr563       O572   2.386       .  S
Zr564       O583   2.436       .  S
Zr564       O576   2.434       .  S
Zr564       O577   2.447       .  S
Zr564       O570   2.406       .  S
Zr564       O571   2.401       .  S
Zr565       O567   2.437       .  S
Zr565       O589   2.439       .  S
Zr565       O591   2.406       .  S
Zr565       O569   2.397       .  S
Zr565       O572   2.386       .  S
Zr566       O592   2.437       .  S
Zr566       O593   2.435       .  S
Zr566       O568   2.437       .  S
Zr566       O569   2.393       .  S
Zr566       O570   2.394       .  S
O567        H604   0.990       .  S
O568        H599   0.990       .  S
O568        H613   0.990       .  S
O570        H596   0.966       .  S
O571       Zr581   2.380       .  S
O572       Zr581   2.384       .  S
O572        H597   0.966       .  S
C575        C849   1.484       .  S
O576        H612   0.990       .  S
O577        C579   1.287       .  A
O578        C579   1.287       .  A
C579        C858   1.488       .  S
O580       Zr581   2.442       .  S
O580        H609   0.990       .  S
Zr581       O584   2.437       .  S
Zr581       O585   2.441       .  S
Zr581       O586   2.425       .  S
O582        C587   1.285       .  A
O583        H600   0.990       .  S
O583        H615   0.990       .  S
O584        H601   0.990       .  S
O585        H605   0.990       .  S
O585        H614   0.990       .  S
O586        C587   1.281       .  A
C587        C848   1.442       .  S
O588        H607   0.990       .  S
O588        H611   0.990       .  S
O589        H603   0.990       .  S
O589        H610   0.990       .  S
O590        C594   1.287   1_556  A
O591        C594   1.277   1_556  A
O592        H602   0.990       .  S
O593        H606   0.990       .  S
C594        C896   1.436       .  S
C617        C618   1.545       .  S
C617        C623   1.536       .  S
C617        C621   1.530       .  S
C617        C870   1.515       .  S
C618        H625   1.084       .  S
C618        C619   1.372       .  D
C619        C620   1.540       .  S
C619        C850   1.501       .  S
C620        C624   1.540       .  S
C620        C622   1.540       .  S
C620        H626   1.111       .  S
C621        H627   1.087       .  S
C621        C622   1.361       .  D
C622        C887   1.440       .  S
C623        H628   1.086       .  S
C623        C624   1.368       .  D
C624        C874   1.480       .  S
C629        C630   1.528       .  S
C629        C635   1.532       .  S
C629        C633   1.533       .  S
C629        C862   1.464       .  S
C630        H637   1.087       .  S
C630        C631   1.362       .  D
C631        C632   1.546       .  S
C631        C864   1.448       .  S
C632        C636   1.543       .  S
C632        C634   1.543       .  S
C632        H638   1.111       .  S
C633        H639   1.086       .  S
C633        C634   1.367       .  D
C634        C839   1.446       .  S
C635        H640   1.087       .  S
C635        C636   1.360       .  D
C636        C844   1.444       .  S
C641        C642   1.525       .  S
C641        C647   1.532   1_655  S
C641        C645   1.529   1_655  S
C641        C846   1.460       .  S
C642        H649   1.087       .  S
C642        C643   1.361       .  D
C643        C644   1.550   1_655  S
C643        C847   1.447       .  S
C644        C648   1.542       .  S
C644        C646   1.547       .  S
C644        H650   1.111       .  S
C645        H651   1.087       .  S
C645        C646   1.364       .  D
C646        C836   1.446       .  S
C647        H652   1.087   1_455  S
C647        C648   1.360       .  D
C648        C838   1.442       .  S
Zr653       O654   2.441       .  S
Zr653       O655   2.459       .  S
Zr653       O656   2.423       .  S
Zr653       O659   2.417       .  S
Zr653       O661   2.378       .  S
Zr653       O662   2.373       .  S
Zr653       O663   2.412       .  S
Zr653       O664   2.406       .  S
O654        H710   0.990       .  S
O654        H718   0.990       .  S
O655        C675   1.288       .  A
O656        C677   1.281       .  A
O657       Zr667   2.417       .  S
O657        C676   1.280       .  A
O658       Zr666   2.466       .  S
O658        C677   1.289       .  A
O659        C676   1.279       .  A
O660       Zr668   2.409       .  S
O660        C675   1.281       .  A
O661       Zr666   2.398       .  S
O661       Zr668   2.383       .  S
O662       Zr667   2.376       .  S
O662       Zr668   2.375       .  S
O662        H697   0.966       .  S
O663       Zr666   2.394       .  S
O663       Zr683   2.403       .  S
O663        H700   0.965       .  S
O664       Zr667   2.382       .  S
O664       Zr683   2.401       .  S
Zr665       O690   2.441       .  S
Zr665       O684   2.434       .  S
Zr665       O692   2.468       .  S
Zr665       O680   2.440       .  S
Zr665       O671   2.387       .  S
Zr665       O672   2.413       .  S
Zr665       O673   2.389       .  S
Zr665       O674   2.385       .  S
Zr666       O685   2.437       .  S
Zr666       O678   2.434       .  S
Zr666       O679   2.436       .  S
Zr666       O672   2.410       .  S
Zr666       O673   2.401       .  S
Zr667       O669   2.434       .  S
Zr667       O691   2.440       .  S
Zr667       O693   2.401       .  S
Zr667       O671   2.395       .  S
Zr667       O674   2.384       .  S
Zr668       O694   2.436       .  S
Zr668       O695   2.435       .  S
Zr668       O670   2.436       .  S
Zr668       O671   2.381       .  S
Zr668       O672   2.392       .  S
O669        H706   0.990   1_455  S
O670        H701   0.990       .  S
O670        H715   0.990       .  S
O672        H698   0.965       .  S
O673       Zr683   2.371       .  S
O674       Zr683   2.383       .  S
O674        H699   0.966       .  S
C675        C825   1.482       .  S
C676        C891   1.423       .  S
C677        C821   1.483       .  S
O678        H714   0.990       .  S
O679        C681   1.285       .  A
O680        C681   1.287       .  A
O682       Zr683   2.441       .  S
O682        H711   0.990       .  S
Zr683       O686   2.437       .  S
Zr683       O687   2.437       .  S
Zr683       O688   2.436       .  S
O684        C689   1.281       .  A
O685        H702   0.990       .  S
O685        H717   0.990       .  S
O686        H703   0.990       .  S
O687        H707   0.990   1_455  S
O687        H716   0.990   1_455  S
O688        C689   1.283       .  A
O690        H709   0.990       .  S
O690        H713   0.990       .  S
O691        H705   0.990       .  S
O691        H712   0.990       .  S
O692        C696   1.289       .  A
O693        C696   1.277       .  A
O694        H704   0.990       .  S
O695        H708   0.990       .  S
C696        C837   1.435   1_554  S
C719        C720   1.540       .  S
C719        C725   1.531       .  S
C719        C723   1.529       .  S
C719        C814   1.513       .  S
C720        H727   1.084       .  S
C720        C721   1.376       .  D
C721        C722   1.548       .  S
C721        C822   1.501       .  S
C722        C726   1.547       .  S
C722        C724   1.543       .  S
C722        H728   1.111       .  S
C723        H729   1.087       .  S
C723        C724   1.358       .  D
C724        C833   1.445       .  S
C725        H730   1.087       .  S
C725        C726   1.364       .  D
C726        C817   1.479       .  S
Zr731       O732   2.442       .  S
Zr731       O733   2.464       .  S
Zr731       O734   2.447       .  S
Zr731       O737   2.423       .  S
Zr731       O739   2.380       .  S
Zr731       O740   2.378       .  S
Zr731       O741   2.413       .  S
Zr731       O742   2.411       .  S
O732        H788   0.990       .  S
O732        H796   0.990       .  S
O733        C753   1.289       .  A
O734        C755   1.286       .  A
O735       Zr745   2.414       .  S
O735        C754   1.280       .  A
O736       Zr744   2.458       .  S
O736        C755   1.288       .  A
O737        C754   1.280       .  A
O738       Zr746   2.411       .  S
O738        C753   1.280       .  A
O739       Zr744   2.404       .  S
O739       Zr746   2.387       .  S
O740       Zr745   2.380       .  S
O740       Zr746   2.378       .  S
O740        H775   0.965       .  S
O741       Zr744   2.400       .  S
O741       Zr761   2.406       .  S
O741        H778   0.965       .  S
O742       Zr745   2.385       .  S
O742       Zr761   2.398       .  S
Zr743       O768   2.442   1_565  S
Zr743       O770   2.466       .  S
Zr743       O749   2.392       .  S
Zr743       O750   2.415       .  S
Zr743       O751   2.391       .  S
Zr743       O752   2.382       .  S
Zr744       O763   2.435       .  S
Zr744       O756   2.433       .  S
Zr744       O750   2.404       .  S
Zr744       O751   2.405       .  S
Zr745       O747   2.436       .  S
Zr745       O769   2.438       .  S
Zr745       O771   2.404       .  S
Zr745       O749   2.393       .  S
Zr745       O752   2.383       .  S
Zr746       O772   2.436       .  S
Zr746       O773   2.438       .  S
Zr746       O748   2.439       .  S
Zr746       O749   2.387       .  S
Zr746       O750   2.386       .  S
O747        H784   0.990       .  S
O748        H779   0.990       .  S
O748        H793   0.990       .  S
O750        H776   0.965       .  S
O751       Zr761   2.380       .  S
O752       Zr761   2.383       .  S
O752        H777   0.966       .  S
C753        C813   1.481       .  S
C754        C883   1.424       .  S
C755        C809   1.489       .  S
O756        H792   0.990       .  S
O757        C759   1.285       .  A
O758        C759   1.288       .  A
C759        C818   1.480       .  S
O760       Zr761   2.441       .  S
O760        H789   0.990       .  S
Zr761       O764   2.437       .  S
Zr761       O765   2.440       .  S
O762        C767   1.283       .  A
O763        H780   0.990   1_565  S
O763        H795   0.990       .  S
O764        H781   0.990   1_565  S
O765        H785   0.990       .  S
O765        H794   0.989       .  S
O766        C767   1.282       .  A
C767        C882   1.443       .  S
O768        H787   0.990       .  S
O768        H791   0.991       .  S
O769        H783   0.990       .  S
O769        H790   0.990       .  S
O770        C774   1.288       .  A
O771        C774   1.277       .  A
O772        H782   0.990       .  S
O773        H786   0.990       .  S
C774        C843   1.437       .  S
C797        C798   1.539       .  S
C797        C803   1.534       .  S
C797        C801   1.533       .  S
C797        C826   1.512       .  S
C798        H805   1.085       .  S
C798        C799   1.371       .  D
C799        C800   1.550       .  S
C799        C810   1.502   1_554  S
C800        C804   1.547       .  S
C800        C802   1.540       .  S
C800        H806   1.111       .  S
C801        H807   1.087       .  S
C801        C802   1.361       .  D
C802        C842   1.445       .  S
C803        H808   1.087       .  S
C803        C804   1.366       .  D
C804        C830   1.483       .  S
C809        H811   1.085       .  S
C809        C810   1.353       .  D
C810        H812   1.086       .  S
C813        H815   1.087       .  S
C813        C814   1.352       .  D
C814        H816   1.087       .  S
C817        H819   1.087       .  S
C817        C818   1.341       .  D
C818        H820   1.087       .  S
C821        H823   1.084       .  S
C821        C822   1.349       .  D
C822        H824   1.086       .  S
C825        H827   1.086       .  S
C825        C826   1.351       .  D
C826        H828   1.087       .  S
C829        H831   1.087       .  S
C829        C830   1.347       .  D
C830        H832   1.087       .  S
C833        C834   1.208       .  T
C834        C835   1.417       .  S
C835        C836   1.209       .  T
C837        C838   1.206       .  T
C839        C840   1.209       .  T
C840        C841   1.417       .  S
C841        C842   1.208       .  T
C843        C844   1.207       .  T
C845        C846   1.201       .  T
C847        C848   1.210       .  T
C849        H851   1.084       .  S
C849        C850   1.350       .  D
C850        H852   1.086       .  S
C853        H855   1.086       .  S
C853        C854   1.353       .  D
C857        H859   1.086       .  S
C857        C858   1.347       .  D
C858        H860   1.087       .  S
C863        C864   1.210       .  T
C865        H867   1.087       .  S
C865        C866   1.342       .  D
C866        H868   1.087       .  S
C869        H871   1.086       .  S
C870        H872   1.087   1_565  S
C873        H875   1.087       .  S
C873        C874   1.343       .  D
C874        H876   1.086       .  S
C877        C878   1.207       .  T
C878        C879   1.414       .  S
C879        C880   1.207       .  T
C881        C882   1.211       .  T
C883        C884   1.200       .  T
C885        C886   1.207       .  T
C887        C888   1.205       .  T
C888        C889   1.410       .  S
C889        C890   1.204       .  T
C891        C892   1.199       .  T
C893        C894   1.210       .  T
C895        C896   1.207       .  T
