geometry optimzed in LAMMPS
_audit_creation_date              2020-11-30 
_audit_creation_method            'lammps2cif' 
_symmetry_space_group_name_H-M    'P1' 
_symmetry_Int_Tables_number       1 
_symmetry_cell_setting            triclinic 
loop_ 
_symmetry_equiv_pos_as_xyz 
  x,y,z 
_cell_length_a                    46.05762123 
_cell_length_b                    45.862367015267424 
_cell_length_c                    45.8698072304394 
_cell_angle_alpha                 89.81250212594914 
_cell_angle_beta                  90.07084586639758 
_cell_angle_gamma                 89.81999851118879 
loop_ 
_atom_site_label 
_atom_site_type_symbol 
_atom_site_fract_x 
_atom_site_fract_y 
_atom_site_fract_z 
_atom_site_charge 
N1          N  0.99064756  0.25452665  0.20366508    -0.36700
N2          N  0.99656257  0.29707753  0.25038861    -0.57300
N3          N  0.99336369  0.24936035  0.29206525    -0.36700
N4          N  0.99042099  0.20747321  0.24483582    -0.57300
C5          C  0.99890117  0.27875577  0.18919258     0.26900
C6          C  0.99653662  0.23155389  0.18619300     0.26900
C7          C  0.00246292  0.27161690  0.30905698     0.26900
C8          C  0.00013339  0.22416859  0.30606149     0.26900
C9          C  0.98972957  0.31495611  0.22788398     0.35500
C10         C  0.99151071  0.31231011  0.27505346     0.35500
C11         C  0.98199862  0.19307815  0.22064564     0.35500
C12         C  0.98356518  0.19026682  0.26767746     0.35500
C13         C  0.01049275  0.27120390  0.16236576    -0.22000
C14         C  0.00920653  0.24130210  0.16055519    -0.22000
C15         C  0.01536559  0.26045930  0.33407172    -0.22000
C16         C  0.01398961  0.23052669  0.33213946    -0.22000
C17         C  0.98062930  0.34180608  0.23815857    -0.23000
C18         C  0.98157676  0.34009465  0.26810635    -0.23000
C19         C  0.96927468  0.16677469  0.22812036    -0.23000
C20         C  0.97029716  0.16497030  0.25802394    -0.23000
C21         C  0.99294326  0.30745409  0.19825926    -0.18400
C22         C  0.98840952  0.20245247  0.19207125    -0.18400
C23         C  0.99229773  0.19582898  0.29660923    -0.18400
C24         C  0.99712960  0.30160126  0.30353408    -0.18400
H25         H  0.01843723  0.28580045  0.14560624     0.14500
H26         H  0.01613001  0.22832242  0.14215844     0.14500
H27         H  0.02458847  0.27262835  0.35199610     0.14500
H28         H  0.02199311  0.21525145  0.34830482     0.14500
H29         H  0.97393239  0.36057079  0.22542535     0.12800
H30         H  0.97548760  0.35732710  0.28296444     0.12800
H31         H  0.96075373  0.15036371  0.21355958     0.12800
H32         H  0.96276530  0.14684746  0.27112257     0.12800
H33         H  0.97801450  0.25417460  0.22247673     0.26100
H34         H  0.98016712  0.25135092  0.27372703     0.26100
O35         O  0.99989696  0.08297884  0.04930560    -0.80200
O36         O  0.00411569  0.41672786  0.04483434    -0.81800
O37         O  0.45525634  0.50313848  0.08103299    -0.78800
O38         O  0.05124950  0.49671293  0.08014580    -0.77200
O39         O  0.08602803  0.49734756  0.04450788    -0.79000
O40         O  0.41897112  0.50145833  0.04689013    -0.79900
O41         O  0.00431693  0.45221909  0.07991778    -0.81200
O42         O  0.00417202  0.04637472  0.08303176    -0.81500
Eu43       Eu  0.00282515  0.50000014  0.05685461     2.39200
O44         O  0.03241166  0.47222409  0.02606780    -0.89000
O45         O  0.47174691  0.02895757  0.02811351    -0.92600
C46         C  0.00212748  0.07348710  0.07580918     1.02100
C47         C  0.00480494  0.42545770  0.07162403     1.01900
C48         C  0.42822696  0.50346282  0.07353678     1.01800
C49         C  0.07787788  0.49542705  0.07131383     0.99700
H50         H  0.46116629  0.45722334  0.03904237     0.29400
O51         O  0.47297955  0.46977834  0.02694882    -1.01400
H52         H  0.04399729  0.04312156  0.04109870     0.29500
O53         O  0.03201957  0.03127967  0.02862324    -1.03900
O54         O  0.00499974  0.41949609  0.44792909    -0.81200
O55         O  0.99701660  0.08571611  0.45292967    -0.80700
O56         O  0.42009925  0.45051393  0.49525339    -0.79100
O57         O  0.08674010  0.45579938  0.49880290    -0.82500
O58         O  0.08432013  0.05174442  0.49976870    -0.80300
O59         O  0.41827212  0.04784265  0.49596900    -0.79000
O60         O  0.45589801  0.50286594  0.41458815    -0.80500
O61         O  0.04877794  0.50806459  0.41487342    -0.82400
O62         O  0.41951778  0.49960845  0.44844760    -0.79200
O63         O  0.08482967  0.50481896  0.44907388    -0.81900
O64         O  0.45651979  0.41650446  0.49244889    -0.77600
O65         O  0.45294247  0.08352409  0.49987070    -0.77600
O66         O  0.04787686  0.08585554  0.49857445    -0.77300
O67         O  0.05307812  0.41914527  0.49798119    -0.80800
O68         O  0.00546687  0.45649490  0.41428631    -0.80200
O69         O  0.99920327  0.05178196  0.41652071    -0.78500
Eu70       Eu  0.00401415  0.44167598  0.49673503     2.39800
Eu71       Eu  0.00076753  0.06062075  0.50024887     2.39600
Eu72       Eu  0.44231473  0.49958702  0.49789674     2.38400
Eu73       Eu  0.06156035  0.50304959  0.49748548     2.39900
Eu74       Eu  0.00241508  0.50336821  0.43974247     2.39800
O75         O  0.03126569  0.03330887  0.46939848    -0.92900
O76         O  0.47340113  0.47192179  0.46792086    -0.91800
C77         C  0.00591035  0.42927615  0.42150247     1.02200
C78         C  0.99672304  0.07824097  0.42580630     1.01000
C79         C  0.42946076  0.42399395  0.49266020     1.00300
C80         C  0.07951116  0.42861471  0.49920567     1.02400
C81         C  0.07494668  0.07834285  0.49908312     1.01300
C82         C  0.42649216  0.07476723  0.49726546     1.00100
C83         C  0.42897485  0.50154356  0.42188633     1.00200
C84         C  0.07564065  0.50732708  0.42255393     1.02800
H85         H  0.45968408  0.04262851  0.45809158     0.30200
O86         O  0.47198772  0.03056724  0.47018910    -1.05100
H87         H  0.04544418  0.46161882  0.45521948     0.32200
O88         O  0.03292813  0.47295191  0.46770602    -1.07700
N89         N  0.24883118  0.49725445  0.20465244    -0.36700
N90         N  0.29598783  0.49845366  0.24703748    -0.57300
N91         N  0.25285093  0.49442040  0.29306150    -0.36700
N92         N  0.20625893  0.49626974  0.25122926    -0.57300
C93         C  0.27167784  0.50524216  0.18790350     0.26900
C94         C  0.22427974  0.50497032  0.19019157     0.26900
C95         C  0.27699397  0.50150164  0.30811812     0.26900
C96         C  0.22991365  0.50067073  0.31029630     0.26900
C97         C  0.31102867  0.49212123  0.22251430     0.35500
C98         C  0.31301237  0.49049515  0.26982603     0.35500
C99         C  0.18899310  0.49049263  0.22821477     0.35500
C100        C  0.19129192  0.48828230  0.27523077     0.35500
C101        C  0.26150321  0.51846809  0.16260995    -0.22000
C102        C  0.23160502  0.51830011  0.16405815    -0.22000
C103        C  0.26935717  0.51287163  0.33503790    -0.22000
C104        C  0.23954785  0.51243247  0.33638265    -0.22000
C105        C  0.33775320  0.48011513  0.22981258    -0.23000
C106        C  0.33903400  0.47918044  0.25981357    -0.23000
C107        C  0.16295220  0.47862631  0.23759126    -0.23000
C108        C  0.16444484  0.47716181  0.26748055    -0.23000
C109        C  0.30121506  0.49840495  0.19382454    -0.18400
C110        C  0.19560039  0.49836461  0.19922725    -0.18400
C111        C  0.20086791  0.49337511  0.30395685    -0.18400
C112        C  0.30552674  0.49451390  0.29945276    -0.18400
H113        H  0.27429150  0.52697139  0.14474250     0.14500
H114        H  0.21695342  0.52664617  0.14753723     0.14500
H115        H  0.28380417  0.51997209  0.35222151     0.14500
H116        H  0.22651531  0.51926553  0.35476940     0.14500
H117        H  0.35456305  0.47272108  0.21511162     0.12800
H118        H  0.35699400  0.47104539  0.27275250     0.12800
H119        H  0.14467369  0.47207404  0.22431495     0.12800
H120        H  0.14755896  0.46928069  0.28184764     0.12800
H121        H  0.24992731  0.48404949  0.22311645     0.26100
H122        H  0.25229956  0.48210667  0.27404705     0.26100
N123        N  0.25610278  0.20605552  0.51226277    -0.36700
N124        N  0.29708076  0.25380921  0.50514439    -0.57300
N125        N  0.24894968  0.29456153  0.50468374    -0.36700
N126        N  0.20817866  0.24665177  0.50959257    -0.57300
C127        C  0.28071640  0.19153204  0.50523214     0.26900
C128        C  0.23354478  0.18780435  0.50745239     0.26900
C129        C  0.27093954  0.31130477  0.49457033     0.26900
C130        C  0.22375168  0.30737773  0.49627554     0.26900
C131        C  0.31544184  0.23205815  0.51289888     0.35500
C132        C  0.31169234  0.27906809  0.50886127     0.35500
C133        C  0.19414764  0.22258560  0.51899930     0.35500
C134        C  0.19026981  0.26945534  0.51456461     0.35500
C135        C  0.27368512  0.16363651  0.49598391    -0.22000
C136        C  0.24394275  0.16145559  0.49697907    -0.22000
C137        C  0.25960792  0.33488279  0.47931704    -0.22000
C138        C  0.22982635  0.33236057  0.48030861    -0.22000
C139        C  0.34192197  0.24352652  0.52142281    -0.23000
C140        C  0.33941151  0.27331750  0.51926642    -0.23000
C141        C  0.16737211  0.23017893  0.53053092    -0.23000
C142        C  0.16488683  0.25993854  0.52766443    -0.23000
C143        C  0.30923668  0.20205660  0.50975910    -0.18400
C144        C  0.20413147  0.19381793  0.51426282    -0.18400
C145        C  0.19559656  0.29809913  0.50456396    -0.18400
C146        C  0.30078073  0.30687078  0.50082633    -0.18400
H147        H  0.28826866  0.14631558  0.48955913     0.14500
H148        H  0.23151691  0.14235984  0.49114680     0.14500
H149        H  0.27155992  0.35225740  0.46880878     0.14500
H150        H  0.21442198  0.34744477  0.47068228     0.14500
H151        H  0.36118928  0.23176729  0.52818635     0.12800
H152        H  0.35627926  0.28883321  0.52442339     0.12800
H153        H  0.15107549  0.21573404  0.53943931     0.12800
H154        H  0.14630152  0.27297441  0.53392770     0.12800
H155        H  0.25510106  0.22591798  0.52312773     0.26100
H156        H  0.25097648  0.27742662  0.51950790     0.26100
C157        C  0.32097149  0.33241638  0.49953004    -0.05300
C158        C  0.31423039  0.35802600  0.01495178    -0.05300
C159        C  0.33345855  0.38154104  0.01539007    -0.23400
C160        C  0.36021741  0.37974715  0.00097537     0.18800
C161        C  0.36725784  0.35425212  0.48522923     0.16000
C162        C  0.34734732  0.33104555  0.48402983    -0.18500
C163        C  0.39444029  0.35215528  0.47160740    -0.20300
C164        C  0.41458677  0.37481614  0.47408463    -0.12800
C165        C  0.40772767  0.40032719  0.48964768     0.03800
C166        C  0.38026988  0.40276520  0.00265224    -0.25000
H167        H  0.29415981  0.35960660  0.02713151     0.08900
H168        H  0.32769747  0.40086900  0.02763700     0.12500
H169        H  0.35268570  0.31157521  0.47178725     0.12400
H170        H  0.40032914  0.33278256  0.45948077     0.12200
H171        H  0.43554562  0.37246452  0.46364061     0.12700
H172        H  0.37480996  0.42221652  0.01486893     0.14700
C173        C  0.40418229  0.09753870  0.49485360    -0.05300
C174        C  0.39129435  0.10353143  0.46777001    -0.05300
C175        C  0.37125383  0.12633329  0.46489696    -0.23400
C176        C  0.36344193  0.14304032  0.48925197     0.18800
C177        C  0.37609103  0.13681055  0.01670260     0.16000
C178        C  0.39679137  0.11440341  0.01921203    -0.18500
C179        C  0.36743117  0.15272168  0.04126974    -0.20300
C180        C  0.34592084  0.17413991  0.03881429    -0.12800
C181        C  0.33339778  0.18057288  0.51169278     0.03800
C182        C  0.34266499  0.16538868  0.48681688    -0.25000
H183        H  0.39712936  0.09083414  0.44876481     0.08900
H184        H  0.36167190  0.13071312  0.44373743     0.16500
H185        H  0.40685300  0.10973028  0.04010730     0.12400
H186        H  0.37679878  0.14813399  0.06248009     0.12200
H187        H  0.33881608  0.18557437  0.05817323     0.12700
H188        H  0.33285441  0.17028643  0.46585534     0.14700
C189        C  0.10343678  0.40703427  0.50233026    -0.05300
C190        C  0.12863814  0.41472493  0.01778693    -0.05300
C191        C  0.15079200  0.39447253  0.02272224    -0.23400
C192        C  0.14887750  0.36640025  0.01104400     0.18800
C193        C  0.12423365  0.35863844  0.99436554     0.16000
C194        C  0.10132276  0.37876953  0.49068313    -0.18500
C195        C  0.12322179  0.33105278  0.48121539    -0.20300
C196        C  0.14636508  0.31145988  0.48455349    -0.12800
C197        C  0.17069233  0.31881941  0.50152981     0.03800
C198        C  0.17158804  0.34628084  0.01507787    -0.25000
H199        H  0.13122032  0.43652405  0.02614587     0.08900
H200        H  0.16972182  0.40099944  0.03512070     0.12500
H201        H  0.08218666  0.37268299  0.47837208     0.12400
H202        H  0.10469290  0.32476399  0.46811941     0.12200
H203        H  0.14536970  0.29050751  0.47377783     0.12700
H204        H  0.19032509  0.35215024  0.02811626     0.14700
C205        C  0.09667790  0.10204996  0.49862699    -0.05300
C206        C  0.09118746  0.12756088  0.48246672    -0.05300
C207        C  0.11144769  0.15015953  0.48175956    -0.23400
C208        C  0.13727087  0.14799520  0.49782877     0.18800
C209        C  0.14285516  0.12266444  0.01451002     0.16000
C210        C  0.12275390  0.09961633  0.01440324    -0.18500
C211        C  0.16825246  0.12103860  0.03137756    -0.20300
C212        C  0.18781088  0.14432797  0.03173606    -0.12800
C213        C  0.18275376  0.16934683  0.51474366     0.03800
C214        C  0.15743814  0.17088189  0.49762430    -0.25000
H215        H  0.07130029  0.12985364  0.47002315     0.08900
H216        H  0.10676288  0.16947273  0.46889679     0.12500
H217        H  0.12702535  0.08013807  0.02718401     0.12400
H218        H  0.17282954  0.10190574  0.04453930     0.12200
H219        H  0.20707092  0.14277332  0.04523183     0.12700
H220        H  0.15342754  0.19000680  0.48423564     0.14700
C221        C  0.40803047  0.50349446  0.39752468    -0.05300
C222        C  0.41301199  0.02370688  0.37532955    -0.05300
C223        C  0.39436409  0.02580588  0.35141202    -0.23400
C224        C  0.37041862  0.00724060  0.34914405     0.18800
C225        C  0.36524820  0.98632268  0.37133329     0.16000
C226        C  0.38401612  0.48481719  0.39558654    -0.18500
C227        C  0.34185198  0.46719356  0.36857539    -0.20300
C228        C  0.32314932  0.46928316  0.34462775    -0.12800
C229        C  0.32763811  0.49042334  0.32283821     0.03800
C230        C  0.35145347  0.00941056  0.32518070    -0.25000
H231        H  0.43151268  0.03820410  0.37644694     0.08900
H232        H  0.39876158  0.04187223  0.33462828     0.12500
H233        H  0.38017250  0.46891899  0.41268567     0.12400
H234        H  0.33761720  0.45097195  0.38524705     0.12200
H235        H  0.30466026  0.45479786  0.34336378     0.12700
H236        H  0.35489378  0.02595375  0.30861003     0.14700
C237        C  0.09713192  0.50915324  0.39895877    -0.05300
C238        C  0.09170177  0.02714266  0.37487459    -0.05300
C239        C  0.11110663  0.02798220  0.35158227    -0.23400
C240        C  0.13593748  0.01029369  0.35189213     0.18800
C241        C  0.14147416  0.99185815  0.37609406     0.16000
C242        C  0.12220132  0.49173112  0.39967145    -0.18500
C243        C  0.16578960  0.47337004  0.37589808    -0.20300
C244        C  0.18469455  0.47341403  0.35213403    -0.12800
C245        C  0.17973116  0.49209378  0.32830682     0.03800
C246        C  0.15522991  0.01061154  0.32833484    -0.25000
H247        H  0.07236118  0.04063413  0.37400951     0.08900
H248        H  0.10649257  0.04213751  0.33317693     0.12500
H249        H  0.12618639  0.47748613  0.41817463     0.12400
H250        H  0.17019276  0.45896373  0.39415567     0.12200
H251        H  0.20346429  0.45912344  0.35242567     0.12700
H252        H  0.15141175  0.02516492  0.31003559     0.14700
C253        C  0.10094678  0.49133649  0.09329648    -0.05300
C254        C  0.12393780  0.47193455  0.08787237    -0.05300
C255        C  0.14683421  0.46895025  0.10766063    -0.23400
C256        C  0.14731143  0.48572890  0.13311743     0.18800
C257        C  0.12392098  0.00491457  0.13899618     0.16000
C258        C  0.10071010  0.00717177  0.11921720    -0.18500
C259        C  0.12426425  0.02178293  0.16438389    -0.20300
C260        C  0.14771685  0.01999102  0.18362772    -0.12800
C261        C  0.17121936  0.50087928  0.17798384     0.03800
C262        C  0.17073028  0.48370590  0.15269578    -0.25000
H263        H  0.12409728  0.45903809  0.06828161     0.08900
H264        H  0.16433186  0.45386660  0.10284459     0.12500
H265        H  0.08288983  0.02204534  0.12353265     0.12400
H266        H  0.10649593  0.03651488  0.16925433     0.12200
H267        H  0.14761278  0.03331561  0.20307855     0.12700
H268        H  0.18852058  0.46879077  0.14840250     0.14700
C269        C  0.32212268  0.49701460  0.16876195    -0.05300
C270        C  0.31538973  0.48005103  0.14418122    -0.05300
C271        C  0.33414180  0.47887593  0.12024142    -0.23400
C272        C  0.36042324  0.49420578  0.12049047     0.18800
C273        C  0.36793414  0.01120179  0.14556474     0.16000
C274        C  0.34859638  0.01290813  0.16934383    -0.18500
C275        C  0.39494298  0.02521496  0.14640138    -0.20300
C276        C  0.41427832  0.02274136  0.12298620    -0.12800
C277        C  0.40672577  0.50667729  0.09757182     0.03800
C278        C  0.37965821  0.49259496  0.09661958    -0.25000
H279        H  0.29541155  0.46767599  0.14350851     0.08900
H280        H  0.32819151  0.46571035  0.10161342     0.12500
H281        H  0.35425105  0.02583152  0.18825517     0.12400
H282        H  0.40130647  0.03775522  0.16533400     0.12200
H283        H  0.43513023  0.03351349  0.12444853     0.12700
H284        H  0.37401004  0.47959597  0.07776425     0.14700
C285        C  0.99490591  0.17067758  0.31716374    -0.05300
C286        C  0.01212138  0.14642061  0.30978695    -0.05300
C287        C  0.01507863  0.12287746  0.32901331    -0.23400
C288        C  0.00127508  0.12338505  0.35623750     0.18800
C289        C  0.48371182  0.14789777  0.36413242     0.16000
C290        C  0.48032073  0.17122314  0.34446980    -0.18500
C291        C  0.47055549  0.14876211  0.39162688    -0.20300
C292        C  0.47499127  0.12609392  0.41155868    -0.12800
C293        C  0.99228681  0.10175664  0.40406152     0.03800
C294        C  0.00504596  0.10035205  0.37625533    -0.25000
H295        H  0.02348697  0.14585017  0.28913367     0.08900
H296        H  0.02856322  0.10452536  0.32279978     0.12500
H297        H  0.46703207  0.18986042  0.35031971     0.12400
H298        H  0.45718424  0.16717912  0.39789657     0.12200
H299        H  0.46472145  0.12742511  0.43275053     0.12700
H300        H  0.01851064  0.08179660  0.37054699     0.14700
C301        C  0.99690681  0.32220627  0.32871833    -0.05300
C302        C  0.48073408  0.31585281  0.35271789    -0.05300
C303        C  0.47987704  0.33487188  0.37643228    -0.23400
C304        C  0.49532719  0.36112425  0.37561789     0.18800
C305        C  0.01180610  0.36791386  0.35126341     0.16000
C306        C  0.01323774  0.34806371  0.32805546    -0.18500
C307        C  0.02655507  0.39456192  0.34980680    -0.20300
C308        C  0.02436127  0.41453686  0.37262294    -0.12800
C309        C  0.00804167  0.40790482  0.39762792     0.03800
C310        C  0.49379671  0.38082823  0.39897440    -0.25000
H311        H  0.46800352  0.29605312  0.35357355     0.08900
H312        H  0.46670616  0.32928546  0.39518291     0.12500
H313        H  0.02660636  0.35292758  0.30922980     0.12400
H314        H  0.03946041  0.40012558  0.33086478     0.12200
H315        H  0.03575926  0.43509905  0.37090132     0.12700
H316        H  0.48092236  0.37553503  0.41804123     0.14700
C317        C  0.00722831  0.40385022  0.09514239    -0.05300
C318        C  0.03070450  0.40584803  0.11454252    -0.05300
C319        C  0.03213534  0.38805840  0.13920842    -0.23400
C320        C  0.00982609  0.36825132  0.14510914     0.18800
C321        C  0.48686004  0.36499803  0.12470188     0.16000
C322        C  0.48566602  0.38285241  0.09973921    -0.18500
C323        C  0.46510561  0.34441032  0.13018747    -0.20300
C324        C  0.46694215  0.32627888  0.15464952    -0.12800
C325        C  0.98928723  0.32983150  0.17518503     0.03800
C326        C  0.01122230  0.35022392  0.16985711    -0.25000
H327        H  0.04782802  0.42155322  0.11071534     0.08900
H328        H  0.05053375  0.39000480  0.15380854     0.12500
H329        H  0.46757296  0.38121169  0.08468725     0.12400
H330        H  0.44698903  0.34196884  0.11531196     0.12200
H331        H  0.45045063  0.30983228  0.15807241     0.12700
H332        H  0.02982507  0.35118278  0.18433153     0.14700
C333        C  0.98764667  0.18102614  0.16771131    -0.05300
C334        C  0.47042462  0.18588962  0.14290969    -0.05300
C335        C  0.47037210  0.16631097  0.11961589    -0.23400
C336        C  0.48654650  0.14039829  0.12123352     0.18800
C337        C  0.00365130  0.13511616  0.14627053     0.16000
C338        C  0.00409579  0.15520649  0.16929320    -0.18500
C339        C  0.01940965  0.10899444  0.14816259    -0.20300
C340        C  0.01868394  0.08899560  0.12527044    -0.12800
C341        C  0.00269082  0.09498781  0.09979144     0.03800
C342        C  0.48671103  0.12063374  0.09787008    -0.25000
H343        H  0.45775032  0.20576143  0.14125018     0.08900
H344        H  0.45766869  0.17142203  0.10035957     0.12500
H345        H  0.01721433  0.15083104  0.18847177     0.12400
H346        H  0.03214786  0.10393854  0.16741670     0.12200
H347        H  0.03099552  0.06892411  0.12732720     0.12700
H348        H  0.47433848  0.12546397  0.07830817     0.14700
N349        N  0.99063675  0.25455977  0.70367337    -0.36700
N350        N  0.99654731  0.29709243  0.75041349    -0.57300
N351        N  0.99334263  0.24936550  0.79207777    -0.36700
N352        N  0.99040135  0.20749268  0.74483697    -0.57300
C353        C  0.99890455  0.27878970  0.68920815     0.26900
C354        C  0.99651780  0.23158838  0.68619646     0.26900
C355        C  0.00243194  0.27161982  0.80907879     0.26900
C356        C  0.00011939  0.22417154  0.80606782     0.26900
C357        C  0.98974100  0.31498305  0.72791011     0.35500
C358        C  0.99149638  0.31232266  0.77508023     0.35500
C359        C  0.98198656  0.19309975  0.72064283     0.35500
C360        C  0.98357039  0.19026891  0.76767360     0.35500
C361        C  0.01049322  0.27123870  0.66238032    -0.22000
C362        C  0.00919272  0.24133779  0.66056215    -0.22000
C363        C  0.01533251  0.26045895  0.83409272    -0.22000
C364        C  0.01396851  0.23052694  0.83215026    -0.22000
C365        C  0.98065910  0.34183788  0.73818743    -0.23000
C366        C  0.98158857  0.34011695  0.76813515    -0.23000
C367        C  0.96929087  0.16678014  0.72811073    -0.23000
C368        C  0.97032583  0.16496293  0.75801286    -0.23000
C369        C  0.99296909  0.30749024  0.69828487    -0.18400
C370        C  0.98838906  0.20248597  0.69206989    -0.18400
C371        C  0.99229805  0.19583038  0.79660744    -0.18400
C372        C  0.99710080  0.30160555  0.80356104    -0.18400
H373        H  0.01844768  0.28583497  0.64562550     0.14500
H374        H  0.01611291  0.22835904  0.64216344     0.14500
H375        H  0.02454955  0.27262544  0.85202187     0.14500
H376        H  0.02197590  0.21524993  0.84831209     0.14500
H377        H  0.97398824  0.36061297  0.72545576     0.12800
H378        H  0.97550903  0.35735164  0.78299447     0.12800
H379        H  0.96078359  0.15036537  0.71354611     0.12800
H380        H  0.96281637  0.14682619  0.77110535     0.12800
H381        H  0.97800536  0.25420645  0.72248589     0.26100
H382        H  0.98015032  0.25135809  0.77373711     0.26100
O383        O  0.99989174  0.08300991  0.54930609    -0.80200
O384        O  0.00419776  0.41670345  0.54478878    -0.81800
O385        O  0.45523402  0.50314788  0.58106289    -0.78800
O386        O  0.05129869  0.49665649  0.58008254    -0.77200
O387        O  0.08607191  0.49732617  0.54444033    -0.79000
O388        O  0.41894720  0.50150470  0.54692101    -0.79900
O389        O  0.00437347  0.45217814  0.57988931    -0.81200
O390        O  0.00413571  0.04641069  0.58304166    -0.81500
Eu391      Eu  0.00285789  0.49996055  0.55682592     2.39200
O392        O  0.03244922  0.47221265  0.52602089    -0.89000
O393        O  0.47177008  0.02894454  0.52809685    -0.92600
C394        C  0.00210755  0.07352232  0.57581177     1.02100
C395        C  0.00487849  0.42542114  0.57158291     1.01900
C396        C  0.42820589  0.50349301  0.57356837     1.01800
C397        C  0.07792642  0.49538008  0.57124569     0.99700
H398        H  0.46110640  0.45724016  0.53905777     0.29400
O399        O  0.47292466  0.46979182  0.52696431    -1.01400
H400        H  0.04397301  0.04313183  0.54112987     0.29500
O401        O  0.03199813  0.03129139  0.52865388    -1.03900
O402        O  0.00496550  0.41949749  0.94797575    -0.81200
O403        O  0.99701698  0.08571174  0.95292483    -0.80700
O404        O  0.42016741  0.45047008  0.99524097    -0.79100
O405        O  0.08669272  0.45576878  0.99889421    -0.82500
O406        O  0.08431558  0.05176262  0.99971886    -0.80300
O407        O  0.41825240  0.04788574  0.99600203    -0.79000
O408        O  0.45592900  0.50281520  0.91456317    -0.80500
O409        O  0.04878912  0.50803887  0.91492659    -0.82400
O410        O  0.41955317  0.49956214  0.94842745    -0.79200
O411        O  0.08483641  0.50478236  0.94913055    -0.81900
O412        O  0.45659495  0.41646794  0.99244223    -0.77600
O413        O  0.45294399  0.08354983  0.99987759    -0.77600
O414        O  0.04786334  0.08586461  0.99855424    -0.77300
O415        O  0.05301846  0.41912638  0.99805334    -0.80800
O416        O  0.00544975  0.45648978  0.91432613    -0.80200
O417        O  0.99918976  0.05178280  0.91650987    -0.78500
Eu418      Eu  0.00397276  0.44169057  0.99677796     2.39800
Eu419      Eu  0.00077035  0.06060650  0.00023770     2.39600
Eu420      Eu  0.44235437  0.49955400  0.99787534     2.38400
Eu421      Eu  0.06154479  0.50303920  0.99753313     2.39900
Eu422      Eu  0.00241326  0.50337114  0.93977229     2.39800
O423        O  0.03126069  0.03331152  0.96936501    -0.92900
O424        O  0.47344621  0.47189012  0.96790284    -0.91800
C425        C  0.00588331  0.42927182  0.92154712     1.02200
C426        C  0.99671768  0.07824035  0.92580067     1.01000
C427        C  0.42953339  0.42395137  0.99265439     1.00300
C428        C  0.07945332  0.42858639  0.99929843     1.02400
C429        C  0.07493451  0.07835856  0.99904648     1.01300
C430        C  0.42648809  0.07480527  0.99728444     1.00100
C431        C  0.42900723  0.50149417  0.92186487     1.00200
C432        C  0.07565097  0.50729297  0.92260937     1.02800
H433        H  0.45967011  0.04266263  0.95811096     0.30200
O434        O  0.47196592  0.03059193  0.97020960    -1.05100
H435        H  0.04542291  0.46160610  0.95527141     0.32200
O436        O  0.03290741  0.47294859  0.96775179    -1.07700
N437        N  0.24879659  0.49721573  0.70466811    -0.36700
N438        N  0.29596978  0.49850030  0.74704492    -0.57300
N439        N  0.25285040  0.49449809  0.79307621    -0.36700
N440        N  0.20623985  0.49626634  0.75125444    -0.57300
C441        C  0.27163235  0.50523205  0.68791725     0.26900
C442        C  0.22423500  0.50490048  0.69020731     0.26900
C443        C  0.27699657  0.50158620  0.80812422     0.26900
C444        C  0.22991746  0.50075417  0.81031367     0.26900
C445        C  0.31099973  0.49214820  0.72252073     0.35500
C446        C  0.31300099  0.49055127  0.76983180     0.35500
C447        C  0.18897098  0.49043885  0.72825374     0.35500
C448        C  0.19128681  0.48830616  0.77527445     0.35500
C449        C  0.26143939  0.51844928  0.66262611    -0.22000
C450        C  0.23154210  0.51823996  0.66407385    -0.22000
C451        C  0.26936705  0.51296911  0.83503993    -0.22000
C452        C  0.23955797  0.51253175  0.83639124    -0.22000
C453        C  0.33772309  0.48013751  0.72981691    -0.23000
C454        C  0.33901523  0.47922231  0.75981747    -0.23000
C455        C  0.16294203  0.47856980  0.73765848    -0.23000
C456        C  0.16444506  0.47715564  0.76754946    -0.23000
C457        C  0.30117755  0.49842151  0.69383187    -0.18400
C458        C  0.19556393  0.49826905  0.69925022    -0.18400
C459        C  0.20087363  0.49343522  0.80399236    -0.18400
C460        C  0.30552471  0.49458526  0.79945799    -0.18400
H461        H  0.27421521  0.52697401  0.64475987     0.14500
H462        H  0.21687983  0.52657229  0.64755562     0.14500
H463        H  0.28381896  0.52007376  0.85221769     0.14500
H464        H  0.22653050  0.51937029  0.85477956     0.14500
H465        H  0.35452404  0.47272468  0.71511530     0.12800
H466        H  0.35697698  0.47108861  0.77275476     0.12800
H467        H  0.14466475  0.47198021  0.72439937     0.12800
H468        H  0.14757023  0.46928148  0.78193340     0.12800
H469        H  0.24990964  0.48401471  0.72313428     0.26100
H470        H  0.25229539  0.48217005  0.77407148     0.26100
N471        N  0.25609041  0.20607461  0.01217495    -0.36700
N472        N  0.29707150  0.25383885  0.00511161    -0.57300
N473        N  0.24894298  0.29459745  0.00476536    -0.36700
N474        N  0.20817320  0.24666751  0.00961418    -0.57300
C475        C  0.28070510  0.19155997  0.00513645     0.26900
C476        C  0.23353616  0.18782281  0.00735278     0.26900
C477        C  0.27092360  0.31135342  0.99464860     0.26900
C478        C  0.22373534  0.30742399  0.99639991     0.26900
C479        C  0.31542782  0.23207832  0.01285053     0.35500
C480        C  0.31168547  0.27909199  0.00885798     0.35500
C481        C  0.19413766  0.22258190  0.01896358     0.35500
C482        C  0.19026512  0.26945991  0.01463315     0.35500
C483        C  0.27368141  0.16367004  0.99586676    -0.22000
C484        C  0.24393869  0.16148235  0.99686189    -0.22000
C485        C  0.25957352  0.33495225  0.97944086    -0.22000
C486        C  0.22979294  0.33243130  0.98046523    -0.22000
C487        C  0.34190572  0.24353335  0.02139571    -0.23000
C488        C  0.33940150  0.27332678  0.01926487    -0.23000
C489        C  0.16735984  0.23015062  0.03050603    -0.23000
C490        C  0.16487788  0.25991588  0.02770531    -0.23000
C491        C  0.30921985  0.20208075  0.00968869    -0.18400
C492        C  0.20412417  0.19382454  0.01417627    -0.18400
C493        C  0.19558525  0.29811980  0.00467956    -0.18400
C494        C  0.30077570  0.30690488  0.00085430    -0.18400
H495        H  0.28827317  0.14635945  0.98943070     0.14500
H496        H  0.23151518  0.14238709  0.99102260     0.14500
H497        H  0.27151274  0.35233802  0.96893659     0.14500
H498        H  0.21437858  0.34752693  0.97087311     0.14500
H499        H  0.36116537  0.23176087  0.02816005     0.12800
H500        H  0.35626837  0.28883503  0.02444727     0.12800
H501        H  0.15105999  0.21568780  0.03937918     0.12800
H502        H  0.14628997  0.27293868  0.03398791     0.12800
H503        H  0.25508975  0.22592488  0.02306119     0.26100
H504        H  0.25098361  0.27743593  0.01955677     0.26100
C505        C  0.32098179  0.33244179  0.99953801    -0.05300
C506        C  0.31420821  0.35798153  0.51496962    -0.05300
C507        C  0.33342311  0.38150749  0.51542439    -0.23400
C508        C  0.36017440  0.37974552  0.50099099     0.18800
C509        C  0.36729313  0.35423575  0.98524137     0.16000
C510        C  0.34736460  0.33104328  0.98404844    -0.18500
C511        C  0.39448654  0.35210688  0.97164457    -0.20300
C512        C  0.41464985  0.37475444  0.97412036    -0.12800
C513        C  0.40779618  0.40028474  0.98965388     0.03800
C514        C  0.38021126  0.40277765  0.50267209    -0.25000
H515        H  0.29413858  0.35953783  0.52715430     0.08900
H516        H  0.32765577  0.40082033  0.52769220     0.12500
H517        H  0.35269639  0.31156085  0.97182243     0.12400
H518        H  0.40037098  0.33271918  0.95953965     0.12200
H519        H  0.43561546  0.37237867  0.96369538     0.12700
H520        H  0.37474901  0.42221425  0.51491126     0.14700
C521        C  0.40418958  0.09758368  0.99485654    -0.05300
C522        C  0.39141850  0.10366428  0.96773694    -0.05300
C523        C  0.37138541  0.12647048  0.96485228    -0.23400
C524        C  0.36347379  0.14310178  0.98922655     0.18800
C525        C  0.37617180  0.13683391  0.51669405     0.16000
C526        C  0.39689005  0.11444128  0.51918480    -0.18500
C527        C  0.36759801  0.15280735  0.54125082    -0.20300
C528        C  0.34605764  0.17419862  0.53882316    -0.12800
C529        C  0.33336729  0.18058967  0.01165261     0.03800
C530        C  0.34271180  0.16546163  0.98677272    -0.25000
H531        H  0.39733620  0.09102918  0.94871591     0.08900
H532        H  0.36189259  0.13091737  0.94366614     0.16500
H533        H  0.40703950  0.10983572  0.54005205     0.12400
H534        H  0.37705091  0.14828347  0.56243663     0.12200
H535        H  0.33901707  0.18567554  0.55818047     0.12700
H536        H  0.33297618  0.17041571  0.96578901     0.14700
C537        C  0.10336813  0.40699879  0.00245586    -0.05300
C538        C  0.12873993  0.41477413  0.51760072    -0.05300
C539        C  0.15090285  0.39452371  0.52250669    -0.23400
C540        C  0.14895457  0.36643503  0.51087122     0.18800
C541        C  0.12427461  0.35865896  0.49425461     0.16000
C542        C  0.10128115  0.37874594  0.99077501    -0.18500
C543        C  0.12322296  0.33105435  0.98127694    -0.20300
C544        C  0.14637518  0.31147352  0.98462071    -0.12800
C545        C  0.17066720  0.31882148  0.00165275     0.03800
C546        C  0.17165839  0.34630641  0.51489846    -0.25000
H547        H  0.13133758  0.43657904  0.52594447     0.08900
H548        H  0.16985872  0.40105994  0.53485998     0.12500
H549        H  0.08217215  0.37267116  0.97841557     0.12400
H550        H  0.10472371  0.32477659  0.96813338     0.12200
H551        H  0.14541623  0.29054080  0.97380338     0.12700
H552        H  0.19042041  0.35218557  0.52789604     0.14700
C553        C  0.09665952  0.10206931  0.99858349    -0.05300
C554        C  0.09117023  0.12757145  0.98240902    -0.05300
C555        C  0.11143574  0.15016561  0.98168460    -0.23400
C556        C  0.13726218  0.14800406  0.99775013     0.18800
C557        C  0.14286848  0.12264609  0.51457254     0.16000
C558        C  0.12277285  0.09959146  0.51444711    -0.18500
C559        C  0.16826274  0.12101984  0.53144485    -0.20300
C560        C  0.18781278  0.14431702  0.53182200    -0.12800
C561        C  0.18275339  0.16935010  0.01464733     0.03800
C562        C  0.15743646  0.17088449  0.99752928    -0.25000
H563        H  0.07128223  0.12985863  0.96996582     0.08900
H564        H  0.10675377  0.16947192  0.96881050     0.12500
H565        H  0.12704661  0.08010679  0.52721716     0.12400
H566        H  0.17284450  0.10188028  0.54459530     0.12200
H567        H  0.20707157  0.14275924  0.54531920     0.12700
H568        H  0.15342752  0.19000671  0.98413606     0.14700
C569        C  0.40806127  0.50345767  0.89750629    -0.05300
C570        C  0.41299514  0.02372977  0.87532251    -0.05300
C571        C  0.39435369  0.02580764  0.85139756    -0.23400
C572        C  0.37040999  0.00723824  0.84913879     0.18800
C573        C  0.36523559  0.98633803  0.87134387     0.16000
C574        C  0.38403730  0.48479353  0.89556501    -0.18500
C575        C  0.34185123  0.46721366  0.86855913    -0.20300
C576        C  0.32314022  0.46932945  0.84462025    -0.12800
C577        C  0.32763480  0.49047908  0.82284125     0.03800
C578        C  0.35144982  0.00938677  0.82516973    -0.25000
H579        H  0.43149591  0.03822737  0.87643267     0.08900
H580        H  0.39875486  0.04186005  0.83460143     0.12500
H581        H  0.38019094  0.46888766  0.91265637     0.12400
H582        H  0.33761370  0.45098385  0.88522205     0.12200
H583        H  0.30464296  0.45485488  0.84335336     0.12700
H584        H  0.35489123  0.02591819  0.80858751     0.14700
C585        C  0.09714124  0.50912654  0.89901271    -0.05300
C586        C  0.09171724  0.02721505  0.87482814    -0.05300
C587        C  0.11113146  0.02804436  0.85154104    -0.23400
C588        C  0.13593132  0.01030960  0.85183840     0.18800
C589        C  0.14142707  0.99183951  0.87602290     0.16000
C590        C  0.12224331  0.49175176  0.89973999    -0.18500
C591        C  0.16586072  0.47344599  0.87597361    -0.20300
C592        C  0.18475581  0.47349759  0.85220088    -0.12800
C593        C  0.17975337  0.49214706  0.82835713     0.03800
C594        C  0.15523428  0.01061506  0.82828831    -0.25000
H595        H  0.07239962  0.04074051  0.87397419     0.08900
H596        H  0.10654838  0.04222758  0.83314939     0.12500
H597        H  0.12625672  0.47753179  0.91825614     0.12400
H598        H  0.17029381  0.45906410  0.89424314     0.12200
H599        H  0.20354735  0.45923613  0.85249769     0.12700
H600        H  0.15144902  0.02519127  0.81000050     0.14700
C601        C  0.10099604  0.49127699  0.59322695    -0.05300
C602        C  0.12402569  0.47192702  0.58777526    -0.05300
C603        C  0.14690306  0.46892404  0.60758613    -0.23400
C604        C  0.14732716  0.48563983  0.63308717     0.18800
C605        C  0.12393618  0.00504185  0.63901172     0.16000
C606        C  0.10071092  0.00730000  0.61924768    -0.18500
C607        C  0.12434458  0.02197428  0.66435675    -0.20300
C608        C  0.14780690  0.02016338  0.68358895    -0.12800
C609        C  0.17117617  0.50074648  0.67800531     0.03800
C610        C  0.17072992  0.48361174  0.65268722    -0.25000
H611        H  0.12423053  0.45908461  0.56814693     0.08900
H612        H  0.16442949  0.45388019  0.60275150     0.12500
H613        H  0.08293477  0.02223615  0.62353066     0.12400
H614        H  0.10661602  0.03676102  0.66920747     0.12200
H615        H  0.14774938  0.03352370  0.70301538     0.12700
H616        H  0.18854782  0.46873438  0.64837939     0.14700
C617        C  0.32208395  0.49704965  0.66876577    -0.05300
C618        C  0.31532714  0.48014635  0.64414967    -0.05300
C619        C  0.33407480  0.47899591  0.62020672    -0.23400
C620        C  0.36038241  0.49427767  0.62049188     0.18800
C621        C  0.36794524  0.01119389  0.64552716     0.16000
C622        C  0.34860591  0.01291032  0.66930523    -0.18500
C623        C  0.39491577  0.02528462  0.64632168    -0.20300
C624        C  0.41425538  0.02280123  0.62291021    -0.12800
C625        C  0.40671054  0.50670467  0.59760749     0.03800
C626        C  0.37961506  0.49268155  0.59662021    -0.25000
H627        H  0.29533250  0.46779980  0.64344993     0.08900
H628        H  0.32810290  0.46588110  0.60154982     0.12500
H629        H  0.35423102  0.02589041  0.68818647     0.12400
H630        H  0.40124657  0.03789468  0.66521869     0.12200
H631        H  0.43507743  0.03363547  0.62433855     0.12700
H632        H  0.37394224  0.47973578  0.57773569     0.14700
C633        C  0.99491112  0.17067872  0.81716156    -0.05300
C634        C  0.01214775  0.14643377  0.80979523    -0.05300
C635        C  0.01511249  0.12289502  0.82902624    -0.23400
C636        C  0.00129396  0.12339458  0.85624310     0.18800
C637        C  0.48372352  0.14789399  0.86413681     0.16000
C638        C  0.48032612  0.17121144  0.84446623    -0.18500
C639        C  0.47055144  0.14875635  0.89162406    -0.20300
C640        C  0.47499452  0.12609762  0.91156540    -0.12800
C641        C  0.99228641  0.10175835  0.90405941     0.03800
C642        C  0.00506623  0.10036367  0.87626259    -0.25000
H643        H  0.02352421  0.14586970  0.78914777     0.08900
H644        H  0.02861300  0.10455168  0.82282144     0.12500
H645        H  0.46702475  0.18984316  0.85030497     0.12400
H646        H  0.45716165  0.16716438  0.89788024     0.12200
H647        H  0.46471028  0.12742446  0.93275045     0.12700
H648        H  0.01854504  0.08181599  0.87056225     0.14700
C649        C  0.99687689  0.32220596  0.82875025    -0.05300
C650        C  0.48079771  0.31582606  0.85272952    -0.05300
C651        C  0.47995133  0.33484187  0.87644638    -0.23400
C652        C  0.49542385  0.36108113  0.87563856     0.18800
C653        C  0.01178982  0.36790167  0.85131198     0.16000
C654        C  0.01322505  0.34805299  0.82810215    -0.18500
C655        C  0.02655801  0.39453939  0.84986872    -0.20300
C656        C  0.02435991  0.41451533  0.87268345    -0.12800
C657        C  0.00801598  0.40789554  0.89767549     0.03800
C658        C  0.49389477  0.38078804  0.89899191    -0.25000
H659        H  0.46805168  0.29603606  0.85357847     0.08900
H660        H  0.46677049  0.32926462  0.89519272     0.12500
H661        H  0.02660910  0.35291077  0.80928598     0.12400
H662        H  0.03948211  0.40009497  0.83093725     0.12200
H663        H  0.03577368  0.43506940  0.87097089     0.12700
H664        H  0.48100246  0.37550807  0.91805021     0.14700
C665        C  0.00730798  0.40380146  0.59508925    -0.05300
C666        C  0.03087365  0.40568885  0.61439070    -0.05300
C667        C  0.03231884  0.38789549  0.63905539    -0.23400
C668        C  0.00993699  0.36819821  0.64505390     0.18800
C669        C  0.48684005  0.36498159  0.62470910     0.16000
C670        C  0.48565134  0.38282238  0.59973624    -0.18500
C671        C  0.46512129  0.34434824  0.63016291    -0.20300
C672        C  0.46695770  0.32622518  0.65463066    -0.12800
C673        C  0.98933278  0.32988067  0.67521959     0.03800
C674        C  0.01134649  0.35016447  0.66979831    -0.25000
H675        H  0.04805518  0.42131197  0.61048977     0.08900
H676        H  0.05078681  0.38975354  0.65357880     0.12500
H677        H  0.46758806  0.38113584  0.58465379     0.12400
H678        H  0.44703540  0.34186326  0.61525740     0.12200
H679        H  0.45049717  0.30974206  0.65802760     0.12700
H680        H  0.03001264  0.35103268  0.68419645     0.14700
C681        C  0.98762918  0.18106409  0.66770650    -0.05300
C682        C  0.47039149  0.18586992  0.64292339    -0.05300
C683        C  0.47035234  0.16629522  0.61962561    -0.23400
C684        C  0.48655670  0.14040035  0.62123104     0.18800
C685        C  0.00365142  0.13516562  0.64625567     0.16000
C686        C  0.00410263  0.15525978  0.66927415    -0.18500
C687        C  0.01943373  0.10905753  0.64813674    -0.20300
C688        C  0.01870059  0.08905301  0.62525024    -0.12800
C689        C  0.00267598  0.09502749  0.59978767     0.03800
C690        C  0.48673290  0.12063957  0.59786295    -0.25000
H691        H  0.45769704  0.20572935  0.64127120     0.08900
H692        H  0.45763665  0.17139618  0.60037485     0.12500
H693        H  0.01724260  0.15089751  0.68844088     0.12400
H694        H  0.03219634  0.10401659  0.66737839     0.12200
H695        H  0.03103088  0.06899204  0.62729727     0.12700
H696        H  0.47434533  0.12545912  0.57830813     0.14700
N697        N  0.99057047  0.75461169  0.20373934    -0.36700
N698        N  0.99626595  0.79708019  0.25057851    -0.57300
N699        N  0.99295583  0.74932216  0.29214497    -0.36700
N700        N  0.99020455  0.70750238  0.24480202    -0.57300
C701        C  0.99887734  0.77888128  0.18936760     0.26900
C702        C  0.99659606  0.73167813  0.18625758     0.26900
C703        C  0.00205512  0.77153445  0.30920053     0.26900
C704        C  0.99971219  0.72409517  0.30608252     0.26900
C705        C  0.98952394  0.81500808  0.22808897     0.35500
C706        C  0.99124737  0.81230208  0.27525582     0.35500
C707        C  0.98188014  0.69314963  0.22055140     0.35500
C708        C  0.98320785  0.69028420  0.26758896     0.35500
C709        C  0.01064732  0.77139627  0.16260030    -0.22000
C710        C  0.00941730  0.74149206  0.16072303    -0.22000
C711        C  0.01493080  0.76031612  0.33419783    -0.22000
C712        C  0.01356361  0.73039028  0.33218173    -0.22000
C713        C  0.98050364  0.84187785  0.23838946    -0.23000
C714        C  0.98143245  0.84013350  0.26833824    -0.23000
C715        C  0.96906713  0.66686404  0.22792926    -0.23000
C716        C  0.96993032  0.66502834  0.25783759    -0.23000
C717        C  0.99282760  0.80755373  0.19846201    -0.18400
C718        C  0.98844741  0.70255916  0.19202468    -0.18400
C719        C  0.99186674  0.69577871  0.29655830    -0.18400
C720        C  0.99680828  0.80153896  0.30372198    -0.18400
H721        H  0.01867472  0.78603817  0.14592126     0.14500
H722        H  0.01646809  0.72855403  0.14234534     0.14500
H723        H  0.02415375  0.77244111  0.35215218     0.14500
H724        H  0.02158092  0.71507904  0.34830538     0.14500
H725        H  0.97391303  0.86069109  0.22567245     0.12800
H726        H  0.97542903  0.85737722  0.28321911     0.12800
H727        H  0.96058841  0.65048671  0.21330570     0.12800
H728        H  0.96230000  0.64690411  0.27087584     0.12800
H729        H  0.97782146  0.75421209  0.22247232     0.26100
H730        H  0.97978611  0.75135293  0.27379015     0.26100
O731        O  0.99973822  0.58297936  0.04928515    -0.80200
O732        O  0.00433120  0.91679172  0.04503231    -0.81800
O733        O  0.45533015  0.00307614  0.08125298    -0.78800
O734        O  0.05139600  0.99662490  0.08008264    -0.77200
O735        O  0.08616982  0.99728846  0.04444468    -0.79000
O736        O  0.41898488  0.00151032  0.04717417    -0.79900
O737        O  0.00440484  0.95231731  0.08008000    -0.81200
O738        O  0.00403404  0.54637381  0.08300174    -0.81500
Eu739      Eu  0.00295964  0.00003673  0.05688000     2.39200
O740        O  0.03261106  0.97226089  0.02615470    -0.89000
O741        O  0.47180261  0.52903475  0.02793679    -0.92600
C742        C  0.00198849  0.57349246  0.07578608     1.02100
C743        C  0.00493426  0.92554682  0.07181940     1.01900
C744        C  0.42829258  0.00347806  0.07380866     1.01800
C745        C  0.07801802  0.99531781  0.07123954     0.99700
H746        H  0.46110422  0.95717215  0.03923558     0.29400
O747        O  0.47290828  0.96972033  0.02712498    -1.01400
H748        H  0.04383574  0.54306226  0.04108122     0.29500
O749        O  0.03187127  0.53122227  0.02859448    -1.03900
O750        O  0.00512877  0.91939024  0.44820533    -0.81200
O751        O  0.99682517  0.58572726  0.45296596    -0.80700
O752        O  0.42017086  0.95028452  0.49551267    -0.79100
O753        O  0.08693874  0.95593562  0.49877945    -0.82500
O754        O  0.08414241  0.55175973  0.49978701    -0.80300
O755        O  0.41828260  0.54793759  0.49589700    -0.79000
O756        O  0.45570261  0.00271261  0.41481686    -0.80500
O757        O  0.04888323  0.00796144  0.41502268    -0.82400
O758        O  0.41935021  0.99946021  0.44871048    -0.79200
O759        O  0.08493647  0.00481064  0.44922761    -0.81900
O760        O  0.45666208  0.91635463  0.49271544    -0.77600
O761        O  0.45297522  0.58361858  0.49962412    -0.77600
O762        O  0.04764654  0.58582010  0.49868886    -0.77300
O763        O  0.05330977  0.91925044  0.49810097    -0.80800
O764        O  0.00561380  0.95633178  0.41449329    -0.80200
O765        O  0.99903593  0.55185681  0.41650615    -0.78500
Eu766      Eu  0.00415800  0.94169170  0.49694621     2.39800
Eu767      Eu  0.00059862  0.56054318  0.50024154     2.39600
Eu768      Eu  0.44228749  0.99945253  0.49807539     2.38400
Eu769      Eu  0.06164244  0.00308554  0.49759287     2.39900
Eu770      Eu  0.00252364  0.00330248  0.43983287     2.39800
O771        O  0.03115267  0.53332475  0.46935576    -0.92900
O772        O  0.47338259  0.97179515  0.46807864    -0.91800
C773        C  0.00605168  0.92912151  0.42176303     1.02200
C774        C  0.99653289  0.57829638  0.42583012     1.01000
C775        C  0.42959026  0.92377425  0.49294721     1.00300
C776        C  0.07974518  0.92874842  0.49920707     1.02400
C777        C  0.07472170  0.57834600  0.49918848     1.01300
C778        C  0.42651776  0.57485530  0.49710699     1.00100
C779        C  0.42877988  0.00140784  0.42214340     1.00200
C780        C  0.07573896  0.00727892  0.42271344     1.02800
H781        H  0.45974936  0.54275323  0.45795605     0.30200
O782        O  0.47204917  0.53069428  0.47006183    -1.05100
H783        H  0.04555176  0.96159588  0.45538587     0.32200
O784        O  0.03303013  0.97294021  0.46785677    -1.07700
N785        N  0.24871638  0.99786921  0.20475477    -0.36700
N786        N  0.29588400  0.99914376  0.24716709    -0.57300
N787        N  0.25274084  0.99489778  0.29312464    -0.36700
N788        N  0.20613706  0.99669710  0.25127771    -0.57300
C789        C  0.27154365  0.00603169  0.18806595     0.26900
C790        C  0.22414823  0.00553985  0.19029825     0.26900
C791        C  0.27686006  0.00193060  0.30823969     0.26900
C792        C  0.22979021  0.00105113  0.31036789     0.26900
C793        C  0.31092473  0.99287166  0.22262729     0.35500
C794        C  0.31291172  0.99113119  0.26993878     0.35500
C795        C  0.18888073  0.99090211  0.22826188     0.35500
C796        C  0.19117727  0.98868306  0.27527174     0.35500
C797        C  0.26133304  0.01935826  0.16283558    -0.22000
C798        C  0.23143616  0.01903102  0.16423969    -0.22000
C799        C  0.26919612  0.01317505  0.33520213    -0.22000
C800        C  0.23939136  0.01271403  0.33651342    -0.22000
C801        C  0.33765063  0.98084910  0.22990799    -0.23000
C802        C  0.33893987  0.97986386  0.25990402    -0.23000
C803        C  0.16284764  0.97901154  0.23763317    -0.23000
C804        C  0.16433430  0.97755373  0.26751883    -0.23000
C805        C  0.30109499  0.99920263  0.19394505    -0.18400
C806        C  0.19549413  0.99877030  0.19927689    -0.18400
C807        C  0.20076853  0.99371115  0.30400109    -0.18400
C808        C  0.30539737  0.99499376  0.29957853    -0.18400
H809        H  0.27409811  0.02801622  0.14502575     0.14500
H810        H  0.21676217  0.02739212  0.14774582     0.14500
H811        H  0.28362278  0.02020450  0.35243248     0.14500
H812        H  0.22634130  0.01945364  0.35492224     0.14500
H813        H  0.35445200  0.97344289  0.21520566     0.12800
H814        H  0.35689391  0.97168670  0.27282473     0.12800
H815        H  0.14458004  0.97242673  0.22435827     0.12800
H816        H  0.14745682  0.96964377  0.28187999     0.12800
H817        H  0.24985089  0.98456972  0.22314985     0.26100
H818        H  0.25221571  0.98265375  0.27406527     0.26100
N819        N  0.25581087  0.70591665  0.51214232    -0.36700
N820        N  0.29703070  0.75346110  0.50508281    -0.57300
N821        N  0.24909858  0.79436953  0.50458361    -0.36700
N822        N  0.20811097  0.74665953  0.50951052    -0.57300
C823        C  0.28034649  0.69136122  0.50495302     0.26900
C824        C  0.23318993  0.68779992  0.50718176     0.26900
C825        C  0.27117193  0.81094876  0.49438095     0.26900
C826        C  0.22396538  0.80722876  0.49604420     0.26900
C827        C  0.31521545  0.73162029  0.51297320     0.35500
C828        C  0.31173759  0.77863860  0.50891905     0.35500
C829        C  0.19399027  0.72266650  0.51896429     0.35500
C830        C  0.19032793  0.76955232  0.51449932     0.35500
C831        C  0.27322434  0.66361036  0.49537393    -0.22000
C832        C  0.24346835  0.66152367  0.49639905    -0.22000
C833        C  0.25995759  0.83444147  0.47890933    -0.22000
C834        C  0.23016243  0.83205338  0.47988199    -0.22000
C835        C  0.34167874  0.74292658  0.52174074    -0.23000
C836        C  0.33934598  0.77274190  0.51955559    -0.23000
C837        C  0.16728272  0.73039429  0.53056369    -0.23000
C838        C  0.16493263  0.76016868  0.52767591    -0.23000
C839        C  0.30887157  0.70168382  0.50970870    -0.18400
C840        C  0.20384239  0.69386385  0.51417480    -0.18400
C841        C  0.19576810  0.79813705  0.50439070    -0.18400
C842        C  0.30097802  0.80647130  0.50079030    -0.18400
H843        H  0.28778682  0.64635000  0.48872353     0.14500
H844        H  0.23095073  0.64254182  0.49039326     0.14500
H845        H  0.27199687  0.85168254  0.46828269     0.14500
H846        H  0.21483045  0.84712305  0.47011737     0.14500
H847        H  0.36079796  0.73102218  0.52868778     0.12800
H848        H  0.35624402  0.78817194  0.52486522     0.12800
H849        H  0.15093704  0.71603193  0.53951433     0.12800
H850        H  0.14642101  0.77329899  0.53396161     0.12800
H851        H  0.25490845  0.72565826  0.52324282     0.26100
H852        H  0.25103152  0.77733804  0.51954359     0.26100
C853        C  0.32122330  0.83198524  0.49956497    -0.05300
C854        C  0.31419997  0.85765822  0.01465800    -0.05300
C855        C  0.33333444  0.88124701  0.01509782    -0.23400
C856        C  0.36025530  0.87942216  0.00100128     0.18800
C857        C  0.36766720  0.85374320  0.48565084     0.16000
C858        C  0.34781970  0.83047861  0.48445746    -0.18500
C859        C  0.39503441  0.85154134  0.47243067    -0.20300
C860        C  0.41507488  0.87429922  0.47486125    -0.12800
C861        C  0.40794261  0.90001016  0.48998036     0.03800
C862        C  0.38018336  0.90255566  0.00264923    -0.25000
H863        H  0.29397767  0.85929359  0.02657515     0.08900
H864        H  0.32735678  0.90067279  0.02708423     0.12500
H865        H  0.35335328  0.81089076  0.47249137     0.12400
H866        H  0.40113984  0.83202459  0.46064469     0.12200
H867        H  0.43617112  0.87185859  0.46472020     0.12700
H868        H  0.37450851  0.92210768  0.01460493     0.14700
C869        C  0.40420457  0.59760135  0.49469541    -0.05300
C870        C  0.39225130  0.60446488  0.46738683    -0.05300
C871        C  0.37216421  0.62722972  0.46459046    -0.23400
C872        C  0.36346702  0.64309908  0.48920126     0.18800
C873        C  0.37540108  0.63607685  0.01687033     0.16000
C874        C  0.39607831  0.61364534  0.01932227    -0.18500
C875        C  0.36616680  0.65139545  0.04160481    -0.20300
C876        C  0.34479732  0.67295247  0.03913906    -0.12800
C877        C  0.33284418  0.68005009  0.51177331     0.03800
C878        C  0.34273971  0.66549119  0.48677908    -0.25000
H879        H  0.39881953  0.59245019  0.44817815     0.08900
H880        H  0.36328894  0.63227765  0.44326760     0.16500
H881        H  0.40561747  0.60843602  0.04033911     0.12400
H882        H  0.37503232  0.64629287  0.06291650     0.12200
H883        H  0.33729908  0.68399732  0.05857523     0.12700
H884        H  0.33353106  0.67097969  0.46568729     0.14700
C885        C  0.10373587  0.90721563  0.50217979    -0.05300
C886        C  0.12927134  0.91508098  0.01699814    -0.05300
C887        C  0.15153854  0.89488586  0.02167518    -0.23400
C888        C  0.14946661  0.86672854  0.01021915     0.18800
C889        C  0.12459964  0.85885559  0.99393579     0.16000
C890        C  0.10157728  0.87893158  0.49059207    -0.18500
C891        C  0.12338935  0.83117252  0.48116562    -0.20300
C892        C  0.14650777  0.81155047  0.48448693    -0.12800
C893        C  0.17095334  0.81895724  0.50127055     0.03800
C894        C  0.17216880  0.84658076  0.01419002    -0.25000
H895        H  0.13189939  0.93689896  0.02532952     0.08900
H896        H  0.17062355  0.90148622  0.03379094     0.12500
H897        H  0.08234616  0.87278894  0.47846018     0.12400
H898        H  0.10475588  0.82483045  0.46824663     0.12200
H899        H  0.14538506  0.79052289  0.47387149     0.12700
H900        H  0.19105627  0.85252117  0.02697391     0.14700
C901        C  0.09638715  0.60210289  0.49881071    -0.05300
C902        C  0.09075700  0.62769779  0.48283237    -0.05300
C903        C  0.11095449  0.65034543  0.48216378    -0.23400
C904        C  0.13686296  0.64813543  0.49807971     0.18800
C905        C  0.14260850  0.62269380  0.01473996     0.16000
C906        C  0.12255885  0.59960112  0.01457874    -0.18500
C907        C  0.16808556  0.62102563  0.03148051    -0.20300
C908        C  0.18762221  0.64433348  0.03183147    -0.12800
C909        C  0.18243670  0.66943431  0.51477085     0.03800
C910        C  0.15700000  0.67104106  0.49785104    -0.25000
H911        H  0.07081164  0.63001731  0.47048803     0.08900
H912        H  0.10616736  0.66971942  0.46943091     0.12500
H913        H  0.12691446  0.58006301  0.02723930     0.12400
H914        H  0.17275942  0.60183304  0.04452114     0.12200
H915        H  0.20697202  0.64272711  0.04519172     0.12700
H916        H  0.15289172  0.69021593  0.48456406     0.14700
C917        C  0.40780582  0.00347111  0.39781114    -0.05300
C918        C  0.41325014  0.52359625  0.37492353    -0.05300
C919        C  0.39460002  0.52556067  0.35099287    -0.23400
C920        C  0.37064259  0.50699229  0.34884139     0.18800
C921        C  0.36548482  0.48619312  0.37114407     0.16000
C922        C  0.38377714  0.98481366  0.39577857    -0.18500
C923        C  0.34161973  0.96733187  0.36863422    -0.20300
C924        C  0.32295448  0.96953162  0.34466151    -0.12800
C925        C  0.32747240  0.99077966  0.32297993     0.03800
C926        C  0.35164155  0.50904788  0.32489578    -0.25000
H927        H  0.43175385  0.53809607  0.37595980     0.08900
H928        H  0.39899537  0.54153263  0.33411835     0.12500
H929        H  0.37993114  0.96882347  0.41279106     0.12400
H930        H  0.33736683  0.95102336  0.38521616     0.12200
H931        H  0.30447254  0.95504622  0.34329444     0.12700
H932        H  0.35506609  0.52550217  0.30823339     0.14700
C933        C  0.09720279  0.00916589  0.39912978    -0.05300
C934        C  0.09170570  0.52711802  0.37467365    -0.05300
C935        C  0.11115243  0.52789690  0.35140022    -0.23400
C936        C  0.13595853  0.51016420  0.35175373     0.18800
C937        C  0.14141883  0.49174286  0.37598086     0.16000
C938        C  0.12230245  0.99179589  0.39981203    -0.18500
C939        C  0.16586183  0.97351217  0.37594742    -0.20300
C940        C  0.18470269  0.97359503  0.35213747    -0.12800
C941        C  0.17966538  0.99230914  0.32835201     0.03800
C942        C  0.15530361  0.51042272  0.32822254    -0.25000
H943        H  0.07239408  0.54064878  0.37377063     0.08900
H944        H  0.10659270  0.54204643  0.33297692     0.12500
H945        H  0.12633611  0.97754383  0.41830012     0.12400
H946        H  0.17032132  0.95909424  0.39418244     0.12200
H947        H  0.20349184  0.95932923  0.35236945     0.12700
H948        H  0.15153116  0.52494791  0.30989229     0.14700
C949        C  0.10107438  0.99122662  0.09321218    -0.05300
C950        C  0.12428112  0.97210818  0.08767405    -0.05300
C951        C  0.14716428  0.96922917  0.10749972    -0.23400
C952        C  0.14742541  0.98586744  0.13305932     0.18800
C953        C  0.12401498  0.50505695  0.13898078     0.16000
C954        C  0.10080240  0.50746781  0.11919690    -0.18500
C955        C  0.12455046  0.52199347  0.16432521    -0.20300
C956        C  0.14798216  0.51998260  0.18358916    -0.12800
C957        C  0.17113976  0.00112944  0.17799104     0.03800
C958        C  0.17084439  0.98401867  0.15265270    -0.25000
H959        H  0.12463829  0.95937529  0.06795885     0.08900
H960        H  0.16483644  0.95437488  0.10261641     0.12500
H961        H  0.08313905  0.52254677  0.12344660     0.12400
H962        H  0.10693935  0.53692621  0.16915846     0.12200
H963        H  0.14802110  0.53334705  0.20301266     0.12700
H964        H  0.18878824  0.96930081  0.14832575     0.14700
C965        C  0.32197492  0.99782034  0.16884462    -0.05300
C966        C  0.31498685  0.98126447  0.14405048    -0.05300
C967        C  0.33371656  0.98008781  0.12009889    -0.23400
C968        C  0.36027484  0.99491453  0.12057599     0.18800
C969        C  0.36779718  0.51096454  0.14525484     0.16000
C970        C  0.34848097  0.51255954  0.16906518    -0.18500
C971        C  0.39450314  0.52556762  0.14583504    -0.20300
C972        C  0.41384697  0.52318536  0.12241345    -0.12800
C973        C  0.40685317  0.00674240  0.09789501     0.03800
C974        C  0.37950635  0.99323536  0.09671353    -0.25000
H975        H  0.29482600  0.96920213  0.14321484     0.08900
H976        H  0.32754934  0.96726936  0.10129978     0.12500
H977        H  0.35392356  0.52578401  0.18783024     0.12400
H978        H  0.40063431  0.53849771  0.16458040     0.12200
H979        H  0.43447696  0.53440284  0.12367852     0.12700
H980        H  0.37361682  0.98061743  0.07767417     0.14700
C981        C  0.99441066  0.67058941  0.31707842    -0.05300
C982        C  0.01145298  0.64623327  0.30961704    -0.05300
C983        C  0.01440719  0.62269487  0.32884736    -0.23400
C984        C  0.00080994  0.62332083  0.35617265     0.18800
C985        C  0.48354047  0.64783370  0.36397813     0.16000
C986        C  0.48012476  0.67113591  0.34430522    -0.18500
C987        C  0.47031301  0.64867114  0.39143826    -0.20300
C988        C  0.47480609  0.62604706  0.41140198    -0.12800
C989        C  0.99208550  0.60183037  0.40410746     0.03800
C990        C  0.00461436  0.60030744  0.37620091    -0.25000
H991        H  0.02270164  0.64558518  0.28890170     0.08900
H992        H  0.02775247  0.60426398  0.32256528     0.12500
H993        H  0.46678005  0.68974421  0.35012079     0.12400
H994        H  0.45685000  0.66703776  0.39765885     0.12200
H995        H  0.46448503  0.62734830  0.43257103     0.12700
H996        H  0.01792811  0.58166783  0.37041261     0.14700
C997        C  0.99666120  0.82211630  0.32892856    -0.05300
C998        C  0.48098625  0.81564029  0.35302054    -0.05300
C999        C  0.48024429  0.83461987  0.37676963    -0.23400
C1000       C  0.49565431  0.86089399  0.37590496     0.18800
C1001       C  0.01189917  0.86764948  0.35160583     0.16000
C1002       C  0.01324597  0.84781240  0.32837560    -0.18500
C1003       C  0.02695467  0.89413157  0.35027666    -0.20300
C1004       C  0.02479329  0.91413480  0.37307420    -0.12800
C1005       C  0.00819319  0.90769336  0.39793812     0.03800
C1006       C  0.49415479  0.88059832  0.39926143    -0.25000
H1007       H  0.46827027  0.79583280  0.35391326     0.08900
H1008       H  0.46717009  0.82899852  0.39557835     0.12500
H1009       H  0.02674721  0.85256272  0.30961678     0.12400
H1010       H  0.04006166  0.89955693  0.33143523     0.12200
H1011       H  0.03641368  0.93457790  0.37144343     0.12700
H1012       H  0.48134312  0.87528204  0.41836466     0.14700
C1013       C  0.00729027  0.90395770  0.09537104    -0.05300
C1014       C  0.03082394  0.90583492  0.11471439    -0.05300
C1015       C  0.03222944  0.88802991  0.13937490    -0.23400
C1016       C  0.00983767  0.86833107  0.14533030     0.18800
C1017       C  0.48660121  0.86500289  0.12486667     0.16000
C1018       C  0.48552359  0.88276993  0.09983970    -0.18500
C1019       C  0.46493239  0.84429039  0.13020925    -0.20300
C1020       C  0.46668969  0.82621143  0.15471213    -0.12800
C1021       C  0.98921186  0.82996737  0.17542026     0.03800
C1022       C  0.01122920  0.85025827  0.17004689    -0.25000
H1023       H  0.04802177  0.92144555  0.11083858     0.08900
H1024       H  0.05068240  0.88986885  0.15392042     0.12500
H1025       H  0.46757487  0.88097629  0.08463263     0.12400
H1026       H  0.44696215  0.84169635  0.11518258     0.12200
H1027       H  0.45029179  0.80964594  0.15801215     0.12700
H1028       H  0.02988584  0.85110117  0.18445927     0.14700
C1029       C  0.98776462  0.68117721  0.16761181    -0.05300
C1030       C  0.47008735  0.68596466  0.14282722    -0.05300
C1031       C  0.47010459  0.66640299  0.11951170    -0.23400
C1032       C  0.48636400  0.64053771  0.12110381     0.18800
C1033       C  0.00365461  0.63519758  0.14620818     0.16000
C1034       C  0.00411660  0.65529363  0.16923240    -0.18500
C1035       C  0.01929763  0.60900740  0.14814686    -0.20300
C1036       C  0.01852121  0.58898561  0.12527255    -0.12800
C1037       C  0.00258933  0.59501354  0.09976269     0.03800
C1038       C  0.48659158  0.62077884  0.09772484    -0.25000
H1039       H  0.45735271  0.70579889  0.14118214     0.08900
H1040       H  0.45738824  0.67149051  0.10025806     0.12500
H1041       H  0.01715162  0.65085908  0.18845470     0.12400
H1042       H  0.03197865  0.60391193  0.16742845     0.12200
H1043       H  0.03074441  0.56886429  0.12737074     0.12700
H1044       H  0.47420165  0.62557935  0.07816735     0.14700
N1045       N  0.99059708  0.75457454  0.70372671    -0.36700
N1046       N  0.99629018  0.79706144  0.75055250    -0.57300
N1047       N  0.99297602  0.74931356  0.79212851    -0.36700
N1048       N  0.99023328  0.70747857  0.74479442    -0.57300
C1049       C  0.99889192  0.77884327  0.68934902     0.26900
C1050       C  0.99662777  0.73163961  0.68624871     0.26900
C1051       C  0.00208190  0.77152776  0.80917745     0.26900
C1052       C  0.99972713  0.72408836  0.80607055     0.26900
C1053       C  0.98952729  0.81497750  0.72805998     0.35500
C1054       C  0.99126517  0.81228588  0.77522697     0.35500
C1055       C  0.98189815  0.69312606  0.72054732     0.35500
C1056       C  0.98320482  0.69028024  0.76758572     0.35500
C1057       C  0.01066329  0.77135736  0.66258223    -0.22000
C1058       C  0.00944442  0.74145251  0.66071123    -0.22000
C1059       C  0.01495925  0.76031246  0.83417521    -0.22000
C1060       C  0.01358415  0.73038631  0.83216574    -0.22000
C1061       C  0.98048761  0.84184267  0.73835606    -0.23000
C1062       C  0.98142729  0.84010778  0.76830500    -0.23000
C1063       C  0.96904783  0.66686087  0.72793105    -0.23000
C1064       C  0.96989628  0.66503824  0.75784069    -0.23000
C1065       C  0.99282053  0.80751373  0.69843369    -0.18400
C1066       C  0.98847726  0.70252211  0.69201959    -0.18400
C1067       C  0.99186786  0.69577336  0.79655348    -0.18400
C1068       C  0.99683270  0.80153082  0.80369451    -0.18400
H1069       H  0.01868137  0.78599939  0.64589861     0.14500
H1070       H  0.01649662  0.72851397  0.64233455     0.14500
H1071       H  0.02418602  0.77243919  0.85212644     0.14500
H1072       H  0.02159910  0.71507668  0.84829197     0.14500
H1073       H  0.97387404  0.86064596  0.72563638     0.12800
H1074       H  0.97541177  0.85734967  0.78318317     0.12800
H1075       H  0.96055003  0.65049035  0.71331110     0.12800
H1076       H  0.96223631  0.64693091  0.77088465     0.12800
H1077       H  0.97784598  0.75417688  0.72245846     0.26100
H1078       H  0.97980294  0.75134235  0.77377553     0.26100
O1079       O  0.99972506  0.58293352  0.54929006    -0.80200
O1080       O  0.00425120  0.91680698  0.54506631    -0.81800
O1081       O  0.45535843  0.00307639  0.58122783    -0.78800
O1082       O  0.05133007  0.99666696  0.58015343    -0.77200
O1083       O  0.08611547  0.99730058  0.54452587    -0.79000
O1084       O  0.41901411  0.00145992  0.54714933    -0.79900
O1085       O  0.00434016  0.95234577  0.58010016    -0.81200
O1086       O  0.00405018  0.54632022  0.58299400    -0.81500
Eu1087     Eu  0.00291650  0.00006415  0.55690438     2.39200
O1088       O  0.03257042  0.97226753  0.52619925    -0.89000
O1089       O  0.47177688  0.52905391  0.52795581    -0.92600
C1090       C  0.00198650  0.57343987  0.57578821     1.02100
C1091       C  0.00485885  0.92557206  0.57184974     1.01900
C1092       C  0.42831925  0.00344975  0.57378249     1.01800
C1093       C  0.07795403  0.99535065  0.57131975     0.99700
H1094       H  0.46117639  0.95715967  0.53922897     0.29400
O1095       O  0.47297330  0.96971174  0.52711481    -1.01400
H1096       H  0.04384937  0.54304599  0.54105969     0.29500
O1097       O  0.03188663  0.53120609  0.52857105    -1.03900
O1098       O  0.00514900  0.91938449  0.94816909    -0.81200
O1099       O  0.99682553  0.58573511  0.95296838    -0.80700
O1100       O  0.42008147  0.95034257  0.99551792    -0.79100
O1101       O  0.08698161  0.95596058  0.99867894    -0.82500
O1102       O  0.08415418  0.55173729  0.99982460    -0.80300
O1103       O  0.41830581  0.54790018  0.99586933    -0.79000
O1104       O  0.45567820  0.00275943  0.91483381    -0.80500
O1105       O  0.04885954  0.00799259  0.91496029    -0.82400
O1106       O  0.41931921  0.99951491  0.94872151    -0.79200
O1107       O  0.08491969  0.00485235  0.94915888    -0.81900
O1108       O  0.45656196  0.91640253  0.99270044    -0.77600
O1109       O  0.45298090  0.58359439  0.99962761    -0.77600
O1110       O  0.04767217  0.58581276  0.99869205    -0.77300
O1111       O  0.05336375  0.91926497  0.99803272    -0.80800
O1112       O  0.00562138  0.95633061  0.91446174    -0.80200
O1113       O  0.99904092  0.55185532  0.91651780    -0.78500
Eu1114     Eu  0.00419649  0.94168031  0.99691187     2.39800
Eu1115     Eu  0.00060141  0.56056504  0.00025034     2.39600
Eu1116     Eu  0.44224499  0.99948904  0.99809158     2.38400
Eu1117     Eu  0.06165838  0.00309476  0.99753787     2.39900
Eu1118     Eu  0.00251981  0.00329834  0.93980536     2.39800
O1119       O  0.03115590  0.53332167  0.96938611    -0.92900
O1120       O  0.47332835  0.97182675  0.96808666    -0.91800
C1121       C  0.00606557  0.92911955  0.92172797     1.02200
C1122       C  0.99653395  0.57829781  0.92583432     1.01000
C1123       C  0.42949320  0.92383129  0.99293644     1.00300
C1124       C  0.07979815  0.92877100  0.99911046     1.02400
C1125       C  0.07474522  0.57832736  0.99920838     1.01300
C1126       C  0.42652823  0.57482157  0.99709928     1.00100
C1127       C  0.42875383  0.00146011  0.92215596     1.00200
C1128       C  0.07571665  0.00732025  0.92264683     1.02800
H1129       H  0.45976638  0.54272091  0.95793419     0.30200
O1130       O  0.47207306  0.53066977  0.97003785    -1.05100
H1131       H  0.04556679  0.96160478  0.95533293     0.32200
O1132       O  0.03304701  0.97294065  0.96781036    -1.07700
N1133       N  0.24875126  0.99788034  0.70473626    -0.36700
N1134       N  0.29590066  0.99909989  0.74715748    -0.57300
N1135       N  0.25273964  0.99483551  0.79310914    -0.36700
N1136       N  0.20615666  0.99668626  0.75125135    -0.57300
C1137       C  0.27158843  0.00600934  0.68804486     0.26900
C1138       C  0.22419205  0.00557238  0.69027606     0.26900
C1139       C  0.27685442  0.00187165  0.80822988     0.26900
C1140       C  0.22978358  0.00098472  0.81034812     0.26900
C1141       C  0.31095430  0.99283954  0.72262211     0.35500
C1142       C  0.31292254  0.99109056  0.76993445     0.35500
C1143       C  0.18890334  0.99093326  0.72822417     0.35500
C1144       C  0.19118226  0.98865586  0.77523004     0.35500
C1145       C  0.26139456  0.01932930  0.66280475    -0.22000
C1146       C  0.23149661  0.01904072  0.66421012    -0.22000
C1147       C  0.26918108  0.01311084  0.83519241    -0.22000
C1148       C  0.23937619  0.01264216  0.83649848    -0.22000
C1149       C  0.33768342  0.98083037  0.72991048    -0.23000
C1150       C  0.33896020  0.97983782  0.75990696    -0.23000
C1151       C  0.16285785  0.97905125  0.73757204    -0.23000
C1152       C  0.16433391  0.97755425  0.76745632    -0.23000
C1153       C  0.30113334  0.99916574  0.69393607    -0.18400
C1154       C  0.19552991  0.99883347  0.69925257    -0.18400
C1155       C  0.20076117  0.99366180  0.80396531    -0.18400
C1156       C  0.30539731  0.99494791  0.79957277    -0.18400
H1157       H  0.27417125  0.02795875  0.64498947     0.14500
H1158       H  0.21683217  0.02740557  0.64770956     0.14500
H1159       H  0.28360185  0.02014408  0.85242608     0.14500
H1160       H  0.22632021  0.01937906  0.85490414     0.14500
H1161       H  0.35449568  0.97344056  0.71521222     0.12800
H1162       H  0.35691388  0.97166812  0.77283281     0.12800
H1163       H  0.14458828  0.97250105  0.72428238     0.12800
H1164       H  0.14744430  0.96964493  0.78180355     0.12800
H1165       H  0.24987084  0.98458788  0.72313667     0.26100
H1166       H  0.25222072  0.98259830  0.77404519     0.26100
N1167       N  0.25583067  0.70589065  0.01225168    -0.36700
N1168       N  0.29704415  0.75342546  0.00512671    -0.57300
N1169       N  0.24910585  0.79432323  0.00448478    -0.36700
N1170       N  0.20812032  0.74663621  0.00948185    -0.57300
C1171       C  0.28036744  0.69132527  0.00508294     0.26900
C1172       C  0.23320834  0.68777197  0.00730658     0.26900
C1173       C  0.27118951  0.81088893  0.99428737     0.26900
C1174       C  0.22398311  0.80717119  0.99589896     0.26900
C1175       C  0.31523401  0.73159927  0.01304434     0.35500
C1176       C  0.31174757  0.77861127  0.00892135     0.35500
C1177       C  0.19400664  0.72266486  0.01900197     0.35500
C1178       C  0.19033591  0.76954077  0.01441967     0.35500
C1179       C  0.27324191  0.66356336  0.99553640    -0.22000
C1180       C  0.24348574  0.66148192  0.99655810    -0.22000
C1181       C  0.25999570  0.83435935  0.97876814    -0.22000
C1182       C  0.23019942  0.83196915  0.97970266    -0.22000
C1183       C  0.34169837  0.74292488  0.02178572    -0.23000
C1184       C  0.33936003  0.77273667  0.01955770    -0.23000
C1185       C  0.16730181  0.73041811  0.03059010    -0.23000
C1186       C  0.16494782  0.76018632  0.02763115    -0.23000
C1187       C  0.30889596  0.70165697  0.00981372    -0.18400
C1188       C  0.20385798  0.69385119  0.01427482    -0.18400
C1189       C  0.19578035  0.79810763  0.00425639    -0.18400
C1190       C  0.30098316  0.80642943  0.00075322    -0.18400
H1191       H  0.28779966  0.64629109  0.98890818     0.14500
H1192       H  0.23096683  0.64249590  0.99056860     0.14500
H1193       H  0.27204951  0.85158989  0.96814076     0.14500
H1194       H  0.21487925  0.84702707  0.96990124     0.14500
H1195       H  0.36082489  0.73103660  0.02873896     0.12800
H1196       H  0.35625933  0.78817777  0.02483118     0.12800
H1197       H  0.15096146  0.71607432  0.03958056     0.12800
H1198       H  0.14643994  0.77333054  0.03389854     0.12800
H1199       H  0.25492316  0.72565074  0.02332104     0.26100
H1200       H  0.25102340  0.77732227  0.01948114     0.26100
C1201       C  0.32120779  0.83195460  0.99955398    -0.05300
C1202       C  0.31421893  0.85772434  0.51461254    -0.05300
C1203       C  0.33336852  0.88130099  0.51502714    -0.23400
C1204       C  0.36031039  0.87942494  0.50097843     0.18800
C1205       C  0.36760828  0.85377594  0.98561083     0.16000
C1206       C  0.34778390  0.83049301  0.98441161    -0.18500
C1207       C  0.39494884  0.85162700  0.97232981    -0.20300
C1208       C  0.41497049  0.87439896  0.97476351    -0.12800
C1209       C  0.40784685  0.90007088  0.98995146     0.03800
C1210       C  0.38025571  0.90254284  0.50261821    -0.25000
H1211       H  0.29398693  0.85939906  0.52650734     0.08900
H1212       H  0.32738895  0.90075526  0.52696663     0.12500
H1213       H  0.35331703  0.81092751  0.97240867     0.12400
H1214       H  0.40104939  0.83213995  0.96049260     0.12200
H1215       H  0.43604868  0.87199800  0.96457538     0.12700
H1216       H  0.37457243  0.92212382  0.51452266     0.14700
C1217       C  0.40420591  0.59756247  0.99470959    -0.05300
C1218       C  0.39214071  0.60434766  0.96743122    -0.05300
C1219       C  0.37204853  0.62711051  0.96465145    -0.23400
C1220       C  0.36344831  0.64304737  0.98925317     0.18800
C1221       C  0.37531226  0.63605329  0.51684694     0.16000
C1222       C  0.39597314  0.61360907  0.51932159    -0.18500
C1223       C  0.36599570  0.65131729  0.54158379    -0.20300
C1224       C  0.34465500  0.67289891  0.53908882    -0.12800
C1225       C  0.33288472  0.68003508  0.01184952     0.03800
C1226       C  0.34270650  0.66542790  0.98685327    -0.25000
H1227       H  0.39862877  0.59227659  0.94823068     0.08900
H1228       H  0.36308788  0.63209943  0.94335085     0.16500
H1229       H  0.40542764  0.60834007  0.54036221     0.12400
H1230       H  0.37477934  0.64615844  0.56291618     0.12200
H1231       H  0.33709578  0.68390672  0.55852226     0.12700
H1232       H  0.33342451  0.67086532  0.96578077     0.14700
C1233       C  0.10380098  0.90724462  0.00204534    -0.05300
C1234       C  0.12915988  0.91502926  0.51722102    -0.05300
C1235       C  0.15141171  0.89482851  0.52194076    -0.23400
C1236       C  0.14938296  0.86669480  0.51042180     0.18800
C1237       C  0.12456851  0.85884787  0.49404352     0.16000
C1238       C  0.10160510  0.87894009  0.99051260    -0.18500
C1239       C  0.12336661  0.83114900  0.98113001    -0.20300
C1240       C  0.14648052  0.81151838  0.98443471    -0.12800
C1241       C  0.17097851  0.81894783  0.00113128     0.03800
C1242       C  0.17208684  0.84655314  0.51440811    -0.25000
H1243       H  0.13176700  0.93683805  0.52557717     0.08900
H1244       H  0.17045928  0.90141231  0.53412497     0.12500
H1245       H  0.08233592  0.87277708  0.97845238     0.12400
H1246       H  0.10469045  0.82478557  0.96828396     0.12200
H1247       H  0.14531015  0.79046405  0.97387769     0.12700
H1248       H  0.19093805  0.85247482  0.52725486     0.14700
C1249       C  0.09642242  0.60207553  0.99883272    -0.05300
C1250       C  0.09082143  0.62765509  0.98282014    -0.05300
C1251       C  0.11101943  0.65030283  0.98216782    -0.23400
C1252       C  0.13689915  0.64810953  0.99813313     0.18800
C1253       C  0.14259667  0.62270712  0.51465887     0.16000
C1254       C  0.12254700  0.59961612  0.51451312    -0.18500
C1255       C  0.16809927  0.62102300  0.53135695    -0.20300
C1256       C  0.18763751  0.64432798  0.53169618    -0.12800
C1257       C  0.18244430  0.66942768  0.01488019     0.03800
C1258       C  0.15703169  0.67101946  0.99792342    -0.25000
H1259       H  0.07089632  0.62996441  0.97044106     0.08900
H1260       H  0.10625322  0.66966594  0.96941063     0.12500
H1261       H  0.12692396  0.58006701  0.52714936     0.12400
H1262       H  0.17279065  0.60182076  0.54437699     0.12200
H1263       H  0.20700430  0.64271154  0.54503043     0.12700
H1264       H  0.15294240  0.69018325  0.98461466     0.14700
C1265       C  0.40778340  0.00351261  0.89781968    -0.05300
C1266       C  0.41328301  0.52357126  0.87491622    -0.05300
C1267       C  0.39462524  0.52556158  0.85099421    -0.23400
C1268       C  0.37065696  0.50700821  0.84883980     0.18800
C1269       C  0.36549677  0.48619674  0.87113063     0.16000
C1270       C  0.38375681  0.98485191  0.89579565    -0.18500
C1271       C  0.34161170  0.96734041  0.86865358    -0.20300
C1272       C  0.32295294  0.96951749  0.84467428    -0.12800
C1273       C  0.32747122  0.99075103  0.82297850     0.03800
C1274       C  0.35164841  0.50908999  0.82490222    -0.25000
H1275       H  0.43179321  0.53806259  0.87595593     0.08900
H1276       H  0.39902243  0.54154307  0.83412918     0.12500
H1277       H  0.37990804  0.96887437  0.91281944     0.12400
H1278       H  0.33735712  0.95104432  0.88524735     0.12200
H1279       H  0.30447398  0.95502759  0.84331407     0.12700
H1280       H  0.35507715  0.52555117  0.80824751     0.14700
C1281       C  0.09718148  0.00920282  0.89906482    -0.05300
C1282       C  0.09168143  0.52705823  0.87471056    -0.05300
C1283       C  0.11112294  0.52785095  0.85143519    -0.23400
C1284       C  0.13596048  0.51016515  0.85180274     0.18800
C1285       C  0.14145803  0.49177635  0.87604611     0.16000
C1286       C  0.12224883  0.99178698  0.89973381    -0.18500
C1287       C  0.16578293  0.97345166  0.87586900    -0.20300
C1288       C  0.18463669  0.97352832  0.85207047    -0.12800
C1289       C  0.17964125  0.99227249  0.82830137     0.03800
C1290       C  0.15529821  0.51043695  0.82826672    -0.25000
H1291       H  0.07234654  0.54055451  0.87379499     0.08900
H1292       H  0.10653459  0.54197448  0.83299912     0.12500
H1293       H  0.12625189  0.97750781  0.91820768     0.12400
H1294       H  0.17021001  0.95900825  0.89409181     0.12200
H1295       H  0.20340349  0.95923282  0.85229857     0.12700
H1296       H  0.15149514  0.52493911  0.80992452     0.14700
C1297       C  0.10100503  0.99126443  0.59329750    -0.05300
C1298       C  0.12414899  0.97205940  0.58780452    -0.05300
C1299       C  0.14705129  0.96919192  0.60760633    -0.23400
C1300       C  0.14738691  0.98591716  0.63310606     0.18800
C1301       C  0.12399772  0.50492126  0.63896802     0.16000
C1302       C  0.10080160  0.50734201  0.61916767    -0.18500
C1303       C  0.12448573  0.52181060  0.66434402    -0.20300
C1304       C  0.14790626  0.51980625  0.68362065    -0.12800
C1305       C  0.17117956  0.00123323  0.67797188     0.03800
C1306       C  0.17082249  0.98406575  0.65267619    -0.25000
H1307       H  0.12444076  0.95925013  0.56814126     0.08900
H1308       H  0.16467682  0.95427174  0.60275323     0.12500
H1309       H  0.08311109  0.52238308  0.62343730     0.12400
H1310       H  0.10684986  0.53671030  0.66918792     0.12200
H1311       H  0.14791323  0.53314788  0.70305987     0.12700
H1312       H  0.18872487  0.96928993  0.64837240     0.14700
C1313       C  0.32201810  0.99776315  0.66884249    -0.05300
C1314       C  0.31506530  0.98113070  0.64409089    -0.05300
C1315       C  0.33380289  0.97992725  0.62014553    -0.23400
C1316       C  0.36032671  0.99481944  0.62058245     0.18800
C1317       C  0.36778622  0.51096689  0.64529361     0.16000
C1318       C  0.34846826  0.51255017  0.66910205    -0.18500
C1319       C  0.39452255  0.52551204  0.64591191    -0.20300
C1320       C  0.41386438  0.52314135  0.62248789    -0.12800
C1321       C  0.40687293  0.00671357  0.59786418     0.03800
C1322       C  0.37956262  0.99312716  0.59672285    -0.25000
H1323       H  0.29492646  0.96902918  0.64328520     0.08900
H1324       H  0.32766584  0.96704432  0.60138071     0.12500
H1325       H  0.35393143  0.52572980  0.68789265     0.12400
H1326       H  0.40067826  0.53838646  0.66468769     0.12200
H1327       H  0.43451788  0.53431206  0.62378200     0.12700
H1328       H  0.37370606  0.98044275  0.57771752     0.14700
C1329       C  0.99440223  0.67058319  0.81707368    -0.05300
C1330       C  0.01140865  0.64620622  0.80959674    -0.05300
C1331       C  0.01434911  0.62266256  0.82882226    -0.23400
C1332       C  0.00077773  0.62330454  0.85615992     0.18800
C1333       C  0.48352088  0.64782892  0.86396715     0.16000
C1334       C  0.48011024  0.67113980  0.84430282    -0.18500
C1335       C  0.47031561  0.64867080  0.89143782    -0.20300
C1336       C  0.47480538  0.62603777  0.91139224    -0.12800
C1337       C  0.99208198  0.60182918  0.90410744     0.03800
C1338       C  0.00457713  0.60028842  0.87618639    -0.25000
H1339       H  0.02263979  0.64554500  0.78887220     0.08900
H1340       H  0.02766651  0.60421576  0.82252765     0.12500
H1341       H  0.46678254  0.68975563  0.85013299     0.12400
H1342       H  0.45687438  0.66704801  0.89767437     0.12200
H1343       H  0.46450418  0.62734479  0.93257061     0.12700
H1344       H  0.01786501  0.58163418  0.87038585     0.14700
C1345       C  0.99668156  0.82211237  0.82889739    -0.05300
C1346       C  0.48094953  0.81565919  0.85300917    -0.05300
C1347       C  0.48020267  0.83464073  0.87675644    -0.23400
C1348       C  0.49558627  0.86092968  0.87588080     0.18800
C1349       C  0.01190593  0.86765512  0.85156466     0.16000
C1350       C  0.01325152  0.84781791  0.82833480    -0.18500
C1351       C  0.02694770  0.89414493  0.85022754    -0.20300
C1352       C  0.02478898  0.91414607  0.87302733    -0.12800
C1353       C  0.00820558  0.90769485  0.89790024     0.03800
C1354       C  0.49408704  0.88063075  0.89924051    -0.25000
H1355       H  0.46825032  0.79584132  0.85391199     0.08900
H1356       H  0.46714481  0.82900827  0.89557333     0.12500
H1357       H  0.02674218  0.85257426  0.80956980     0.12400
H1358       H  0.04004219  0.89957706  0.83137926     0.12200
H1359       H  0.03639855  0.93459498  0.87139138     0.12700
H1360       H  0.48129857  0.87529859  0.91835492     0.14700
C1361       C  0.00721356  0.90399493  0.59541199    -0.05300
C1362       C  0.03065988  0.90598535  0.61485063    -0.05300
C1363       C  0.03205356  0.88818679  0.63951386    -0.23400
C1364       C  0.00973619  0.86837802  0.64537646     0.18800
C1365       C  0.48665808  0.86501338  0.62485144     0.16000
C1366       C  0.48558558  0.88278987  0.59983156    -0.18500
C1367       C  0.46498478  0.84430322  0.63018555    -0.20300
C1368       C  0.46673596  0.82621733  0.65468391    -0.12800
C1369       C  0.98918185  0.82991309  0.67538210     0.03800
C1370       C  0.01111851  0.85031351  0.67009795    -0.25000
H1371       H  0.04779897  0.92167838  0.61104556     0.08900
H1372       H  0.05043829  0.89011638  0.65413397     0.12500
H1373       H  0.46763802  0.88100511  0.58462190     0.12400
H1374       H  0.44701521  0.84171755  0.61515644     0.12200
H1375       H  0.45033346  0.80965544  0.65797935     0.12700
H1376       H  0.02971336  0.85124908  0.68458441     0.14700
C1377       C  0.98778782  0.68113482  0.66761046    -0.05300
C1378       C  0.47013907  0.68600261  0.64280305    -0.05300
C1379       C  0.47014321  0.66643929  0.61948979    -0.23400
C1380       C  0.48636520  0.64055175  0.62109634     0.18800
C1381       C  0.00363821  0.63513136  0.64622618     0.16000
C1382       C  0.00410165  0.65522761  0.66925075    -0.18500
C1383       C  0.01924349  0.60891974  0.64818201    -0.20300
C1384       C  0.01847060  0.58890199  0.62530374    -0.12800
C1385       C  0.00257901  0.59495378  0.59977323     0.03800
C1386       C  0.48658051  0.62079040  0.59772143    -0.25000
H1387       H  0.45743066  0.70585309  0.64114940     0.08900
H1388       H  0.45744518  0.67154198  0.60022790     0.12500
H1389       H  0.01711061  0.65077612  0.68848699     0.12400
H1390       H  0.03189440  0.60380577  0.66747876     0.12200
H1391       H  0.03066667  0.56876555  0.62741563     0.12700
H1392       H  0.47421100  0.62560556  0.57815430     0.14700
N1393       N  0.49094557  0.25376586  0.20344971    -0.36700
N1394       N  0.49761487  0.29672045  0.24973444    -0.57300
N1395       N  0.49361156  0.24938774  0.29174619    -0.36700
N1396       N  0.48970216  0.20718547  0.24495909    -0.57300
C1397       C  0.49974513  0.27770771  0.18884044     0.26900
C1398       C  0.49663754  0.23053976  0.18625628     0.26900
C1399       C  0.50326546  0.27163549  0.30843593     0.26900
C1400       C  0.50016459  0.22420979  0.30587459     0.26900
C1401       C  0.49079122  0.31438798  0.22706406     0.35500
C1402       C  0.49258068  0.31217970  0.27426542     0.35500
C1403       C  0.48119451  0.19264088  0.22089965     0.35500
C1404       C  0.48270341  0.19026773  0.26795443     0.35500
C1405       C  0.51153793  0.26971866  0.16223400    -0.22000
C1406       C  0.50978622  0.23982557  0.16068960    -0.22000
C1407       C  0.51634963  0.26048874  0.33335682    -0.22000
C1408       C  0.51448339  0.23056247  0.33169925    -0.22000
C1409       C  0.48169762  0.34133503  0.23709691    -0.23000
C1410       C  0.48266564  0.33990539  0.26707071    -0.23000
C1411       C  0.46821082  0.16653229  0.22860375    -0.23000
C1412       C  0.46919551  0.16500623  0.25853309    -0.23000
C1413       C  0.49397527  0.30655418  0.19751711    -0.18400
C1414       C  0.48789508  0.20165732  0.19228720    -0.18400
C1415       C  0.49177402  0.19592183  0.29675865    -0.18400
C1416       C  0.49809850  0.30162884  0.30282634    -0.18400
H1417       H  0.51988186  0.28403400  0.14543000     0.14500
H1418       H  0.51669609  0.22655590  0.14249490     0.14500
H1419       H  0.52595607  0.27267520  0.35106528     0.14500
H1420       H  0.52244566  0.21529378  0.34789055     0.14500
H1421       H  0.47497345  0.35997222  0.22419205     0.12800
H1422       H  0.47656474  0.35726375  0.28177521     0.12800
H1423       H  0.45962222  0.15003157  0.21418513     0.12800
H1424       H  0.46157881  0.14703910  0.27179664     0.12800
H1425       H  0.47807393  0.25382420  0.22210622     0.26100
H1426       H  0.48019036  0.25144724  0.27357293     0.26100
O1427       O  0.49995418  0.08255422  0.04939730    -0.80200
O1428       O  0.50374977  0.41657855  0.04457312    -0.81800
O1429       O  0.95546853  0.50294147  0.08149946    -0.78800
O1430       O  0.55057693  0.49662811  0.08036824    -0.77200
O1431       O  0.58553949  0.49677129  0.04491234    -0.79000
O1432       O  0.91922847  0.50086069  0.04731335    -0.79900
O1433       O  0.50417928  0.45207349  0.07963406    -0.81200
O1434       O  0.50372374  0.04581333  0.08301355    -0.81500
Eu1435     Eu  0.50254525  0.49978537  0.05652505     2.39200
O1436       O  0.53207280  0.47175611  0.02595053    -0.89000
O1437       O  0.97189829  0.02904164  0.02829783    -0.92600
C1438       C  0.50187721  0.07294476  0.07588495     1.02100
C1439       C  0.50465474  0.42531304  0.07135626     1.01900
C1440       C  0.92842652  0.50292747  0.07397530     1.01800
C1441       C  0.57722731  0.49515252  0.07170451     0.99700
H1442       H  0.96168709  0.45724777  0.03938420     0.29400
O1443       O  0.97342044  0.46985350  0.02726502    -1.01400
H1444       H  0.54394695  0.04252833  0.04113477     0.29500
O1445       O  0.53193952  0.03076692  0.02861261    -1.03900
O1446       O  0.50463027  0.41935014  0.44765330    -0.81200
O1447       O  0.49716789  0.08564543  0.45302912    -0.80700
O1448       O  0.92043841  0.45015632  0.49616093    -0.79100
O1449       O  0.58612319  0.45471945  0.49912396    -0.82500
O1450       O  0.58459304  0.05068573  0.49945642    -0.80300
O1451       O  0.91814351  0.04736223  0.49600217    -0.79000
O1452       O  0.95585145  0.50276755  0.41484101    -0.80500
O1453       O  0.54876584  0.50807009  0.41497918    -0.82400
O1454       O  0.91957061  0.49910014  0.44876590    -0.79200
O1455       O  0.58472429  0.50420404  0.44923678    -0.81900
O1456       O  0.95701278  0.41633441  0.49328754    -0.77600
O1457       O  0.95252550  0.08330607  0.49996300    -0.77600
O1458       O  0.54834457  0.08501763  0.49820495    -0.77300
O1459       O  0.55217659  0.41833986  0.49799521    -0.80800
O1460       O  0.50528641  0.45641579  0.41409752    -0.80200
O1461       O  0.49903961  0.05177784  0.41654722    -0.78500
Eu1462     Eu  0.50348425  0.44152367  0.49650114     2.39800
Eu1463     Eu  0.50093752  0.06034528  0.50021139     2.39600
Eu1464     Eu  0.94250995  0.49923769  0.49819651     2.38400
Eu1465     Eu  0.56147418  0.50231790  0.49761556     2.39900
Eu1466     Eu  0.50237719  0.50328511  0.43962990     2.39800
O1467       O  0.53124935  0.03271920  0.46950406    -0.92900
O1468       O  0.97367575  0.47177595  0.46810367    -0.91800
C1469       C  0.50566645  0.42917314  0.42124246     1.02200
C1470       C  0.49669978  0.07823524  0.42589601     1.01000
C1471       C  0.92989074  0.42366538  0.49377181     1.00300
C1472       C  0.57865936  0.42758718  0.49948875     1.02400
C1473       C  0.57537196  0.07733076  0.49859883     1.01300
C1474       C  0.92614991  0.07433336  0.49730135     1.00100
C1475       C  0.92894881  0.50124278  0.42218486     1.00200
C1476       C  0.57559048  0.50713470  0.42274178     1.02800
H1477       H  0.95968120  0.04255004  0.45814174     0.30200
O1478       O  0.97206286  0.03059240  0.47026224    -1.05100
H1479       H  0.54516790  0.46119264  0.45512058     0.32200
O1480       O  0.53269274  0.47259283  0.46758772    -1.07700
N1481       N  0.74831193  0.49736558  0.20468507    -0.36700
N1482       N  0.79575871  0.49818128  0.24697165    -0.57300
N1483       N  0.75290338  0.49543372  0.29319707    -0.36700
N1484       N  0.70596819  0.49788939  0.25150771    -0.57300
C1485       C  0.77123594  0.50449172  0.18763385     0.26900
C1486       C  0.72381786  0.50520002  0.19015657     0.26900
C1487       C  0.77722351  0.50206575  0.30819324     0.26900
C1488       C  0.73014518  0.50204313  0.31052494     0.26900
C1489       C  0.81064456  0.49157546  0.22242366     0.35500
C1490       C  0.81293104  0.49046965  0.26975251     0.35500
C1491       C  0.68836846  0.49236787  0.22867240     0.35500
C1492       C  0.69101827  0.49037844  0.27567367     0.35500
C1493       C  0.76116218  0.51719626  0.16203568    -0.22000
C1494       C  0.73127200  0.51765769  0.16363720    -0.22000
C1495       C  0.76987213  0.51348811  0.33517024    -0.22000
C1496       C  0.74006957  0.51355156  0.33661542    -0.22000
C1497       C  0.83742535  0.47967697  0.22970612    -0.23000
C1498       C  0.83889266  0.47906475  0.25970264    -0.23000
C1499       C  0.66211500  0.48122998  0.23833739    -0.23000
C1500       C  0.66383755  0.47987755  0.26820135    -0.23000
C1501       C  0.80075408  0.49757474  0.19368411    -0.18400
C1502       C  0.69501806  0.49952268  0.19950920    -0.18400
C1503       C  0.70096145  0.49522970  0.30432285    -0.18400
C1504       C  0.80563645  0.49473214  0.29940374    -0.18400
H1505       H  0.77400473  0.52502281  0.14390261     0.14500
H1506       H  0.71670027  0.52588258  0.14698502     0.14500
H1507       H  0.78449174  0.52030438  0.35232354     0.14500
H1508       H  0.72721523  0.52053680  0.35507202     0.14500
H1509       H  0.85416840  0.47216718  0.21498553     0.12800
H1510       H  0.85694389  0.47109624  0.27261607     0.12800
H1511       H  0.64359688  0.47495206  0.22526285     0.12800
H1512       H  0.64690290  0.47240319  0.28272719     0.12800
H1513       H  0.74926599  0.48468694  0.22351122     0.26100
H1514       H  0.75203109  0.48316267  0.27417424     0.26100
N1515       N  0.75614087  0.20575543  0.51140767    -0.36700
N1516       N  0.79686974  0.25393701  0.50576795    -0.57300
N1517       N  0.74853737  0.29449880  0.50636105    -0.36700
N1518       N  0.70801448  0.24605297  0.50980700    -0.57300
C1519       C  0.78083299  0.19149832  0.50411300     0.26900
C1520       C  0.73368192  0.18745101  0.50633284     0.26900
C1521       C  0.77048827  0.31171758  0.49692640     0.26900
C1522       C  0.72328696  0.30732371  0.49808637     0.26900
C1523       C  0.81535142  0.23205359  0.51288612     0.35500
C1524       C  0.81132507  0.27916622  0.51031157     0.35500
C1525       C  0.69402179  0.22170393  0.51852030     0.35500
C1526       C  0.68985485  0.26860865  0.51494479     0.35500
C1527       C  0.77389634  0.16371044  0.49440922    -0.22000
C1528       C  0.74418544  0.16135662  0.49539655    -0.22000
C1529       C  0.75906188  0.33565596  0.48232031    -0.22000
C1530       C  0.72929689  0.33285190  0.48298055    -0.22000
C1531       C  0.84174998  0.24344952  0.52179102    -0.23000
C1532       C  0.83903580  0.27325368  0.52062664    -0.23000
C1533       C  0.66702381  0.22886990  0.52980342    -0.23000
C1534       C  0.66433640  0.25864586  0.52743297    -0.23000
C1535       C  0.80931049  0.20207012  0.50897679    -0.18400
C1536       C  0.70426172  0.19310926  0.51334235    -0.18400
C1537       C  0.69508559  0.29748558  0.50562208    -0.18400
C1538       C  0.80038857  0.30716346  0.50295760    -0.18400
H1539       H  0.78845457  0.14646597  0.48777959     0.14500
H1540       H  0.73185009  0.14227480  0.48932445     0.14500
H1541       H  0.77092832  0.35339129  0.47233557     0.14500
H1542       H  0.71385639  0.34806431  0.47361898     0.14500
H1543       H  0.86113819  0.23169106  0.52816671     0.12800
H1544       H  0.85579633  0.28868990  0.52634340     0.12800
H1545       H  0.65070051  0.21414567  0.53818725     0.12800
H1546       H  0.64554582  0.27141463  0.53363071     0.12800
H1547       H  0.75503958  0.22537609  0.52268460     0.26100
H1548       H  0.75058771  0.27686176  0.52057574     0.26100
C1549       C  0.82078308  0.33263076  0.50169331    -0.05300
C1550       C  0.81418803  0.35833158  0.01682318    -0.05300
C1551       C  0.83356380  0.38176131  0.01712612    -0.23400
C1552       C  0.86037286  0.37971792  0.00280423     0.18800
C1553       C  0.86736775  0.35400509  0.48748028     0.16000
C1554       C  0.84723476  0.33098909  0.48631481    -0.18500
C1555       C  0.89461748  0.35153215  0.47404444    -0.20300
C1556       C  0.91490405  0.37410017  0.47625579    -0.12800
C1557       C  0.90813630  0.39990443  0.49135383     0.03800
C1558       C  0.88054156  0.40267912  0.00422748    -0.25000
H1559       H  0.79410183  0.36012033  0.02894666     0.08900
H1560       H  0.82786938  0.40122515  0.02918944     0.12500
H1561       H  0.85245955  0.31144239  0.47414837     0.12400
H1562       H  0.90042046  0.33196228  0.46219649     0.12200
H1563       H  0.93586548  0.37147831  0.46588308     0.12700
H1564       H  0.87511767  0.42231886  0.01615641     0.14700
C1565       C  0.90366316  0.09688999  0.49481478    -0.05300
C1566       C  0.88974957  0.10175348  0.46802203    -0.05300
C1567       C  0.86971891  0.12453276  0.46494158    -0.23400
C1568       C  0.86285948  0.14225384  0.48886357     0.18800
C1569       C  0.87631081  0.13687202  0.01610333     0.16000
C1570       C  0.89708165  0.11456659  0.01873402    -0.18500
C1571       C  0.86833859  0.15353454  0.04038932    -0.20300
C1572       C  0.84670953  0.17481063  0.03788661    -0.12800
C1573       C  0.83354404  0.18061506  0.51088424     0.03800
C1574       C  0.84222075  0.16469948  0.48624106    -0.25000
H1575       H  0.89487414  0.08827927  0.44934921     0.08900
H1576       H  0.85941761  0.12811807  0.44397693     0.16500
H1577       H  0.90781544  0.11063561  0.03944251     0.12400
H1578       H  0.87826918  0.14958200  0.06146714     0.12200
H1579       H  0.84004457  0.18671612  0.05711789     0.12700
H1580       H  0.83199412  0.16904963  0.46536113     0.14700
C1581       C  0.60234161  0.40581899  0.50307114    -0.05300
C1582       C  0.62716750  0.41327040  0.01935174    -0.05300
C1583       C  0.64911575  0.39291471  0.02469185    -0.23400
C1584       C  0.64762167  0.36509437  0.01239382     0.18800
C1585       C  0.62354017  0.35763174  0.99476776     0.16000
C1586       C  0.60061016  0.37776727  0.49083588    -0.18500
C1587       C  0.62304474  0.33032138  0.48102415    -0.20300
C1588       C  0.64625352  0.31082382  0.48458076    -0.12800
C1589       C  0.66997903  0.31793454  0.50250811     0.03800
C1590       C  0.67030578  0.34500928  0.01666112    -0.25000
H1591       H  0.62948347  0.43491754  0.02814087     0.08900
H1592       H  0.66762726  0.39920941  0.03782697     0.12500
H1593       H  0.58193108  0.37195510  0.47770862     0.12400
H1594       H  0.60501553  0.32426598  0.46713600     0.12200
H1595       H  0.64581328  0.29017631  0.47319491     0.12700
H1596       H  0.68862152  0.35067755  0.03037646     0.14700
C1597       C  0.59722274  0.10090769  0.49777774    -0.05300
C1598       C  0.59168027  0.12634623  0.48152102    -0.05300
C1599       C  0.61193805  0.14893235  0.48063374    -0.23400
C1600       C  0.63780821  0.14683602  0.49662630     0.18800
C1601       C  0.64349775  0.12151163  0.01353722     0.16000
C1602       C  0.62341565  0.09844187  0.01355732    -0.18500
C1603       C  0.66892212  0.11998963  0.03037527    -0.20300
C1604       C  0.68835814  0.14338556  0.03075047    -0.12800
C1605       C  0.68314436  0.16841971  0.51358653     0.03800
C1606       C  0.65787021  0.16980795  0.49640885    -0.25000
H1607       H  0.57172065  0.12861808  0.46919104     0.08900
H1608       H  0.60718229  0.16821458  0.46775027     0.12500
H1609       H  0.62772449  0.07901537  0.02640396     0.12400
H1610       H  0.67358516  0.10088159  0.04354333     0.12200
H1611       H  0.70762044  0.14193696  0.04425453     0.12700
H1612       H  0.65375466  0.18893847  0.48305947     0.14700
C1613       C  0.90794904  0.50332403  0.39784750    -0.05300
C1614       C  0.91317953  0.02352085  0.37550269    -0.05300
C1615       C  0.89457053  0.02560641  0.35154331    -0.23400
C1616       C  0.87077204  0.00686824  0.34909876     0.18800
C1617       C  0.86573351  0.98577442  0.37115391     0.16000
C1618       C  0.88405055  0.48451347  0.39564420    -0.18500
C1619       C  0.84208288  0.46687465  0.36827845    -0.20300
C1620       C  0.82343487  0.46908053  0.34428356    -0.12800
C1621       C  0.82781035  0.49049391  0.32273816     0.03800
C1622       C  0.85181512  0.00903940  0.32510204    -0.25000
H1623       H  0.93156218  0.03815958  0.37673992     0.08900
H1624       H  0.89888166  0.04180767  0.33486693     0.12500
H1625       H  0.88029252  0.46838384  0.41254395     0.12400
H1626       H  0.83792693  0.45042875  0.38474888     0.12200
H1627       H  0.80505520  0.45447699  0.34280691     0.12700
H1628       H  0.85514099  0.02572091  0.30864729     0.14700
C1629       C  0.59712642  0.50939940  0.39928734    -0.05300
C1630       C  0.59172153  0.02760880  0.37531583    -0.05300
C1631       C  0.61137808  0.02899084  0.35226145    -0.23400
C1632       C  0.63629486  0.01142109  0.35251690     0.18800
C1633       C  0.64165238  0.99255107  0.37642117     0.16000
C1634       C  0.62221645  0.49203316  0.39982312    -0.18500
C1635       C  0.66596757  0.47427648  0.37598216    -0.20300
C1636       C  0.68493420  0.47476386  0.35228936    -0.12800
C1637       C  0.68005805  0.49392599  0.32883487     0.03800
C1638       C  0.65579069  0.01219295  0.32914308    -0.25000
H1639       H  0.57234292  0.04104934  0.37451300     0.08900
H1640       H  0.60689213  0.04346602  0.33407343     0.12500
H1641       H  0.62609107  0.47738284  0.41803249     0.12400
H1642       H  0.67025150  0.45945441  0.39393382     0.12200
H1643       H  0.70361387  0.46035300  0.35229196     0.12700
H1644       H  0.65205504  0.02699441  0.31102649     0.14700
C1645       C  0.60010310  0.49120113  0.09389984    -0.05300
C1646       C  0.62275718  0.47127920  0.08904131    -0.05300
C1647       C  0.64557670  0.46844726  0.10892361    -0.23400
C1648       C  0.64631427  0.48589374  0.13391381     0.18800
C1649       C  0.62322719  0.00563237  0.13955610     0.16000
C1650       C  0.60001920  0.00784938  0.11971414    -0.18500
C1651       C  0.62399420  0.02308857  0.16455093    -0.20300
C1652       C  0.64752430  0.02132018  0.18375236    -0.12800
C1653       C  0.67058723  0.50191882  0.17827370     0.03800
C1654       C  0.66974975  0.48406685  0.15347876    -0.25000
H1655       H  0.62272198  0.45787385  0.06980760     0.08900
H1656       H  0.66284146  0.45297222  0.10451605     0.12500
H1657       H  0.58248985  0.02317260  0.12364625     0.12400
H1658       H  0.60651559  0.03825854  0.16913403     0.12200
H1659       H  0.64774874  0.03509024  0.20288828     0.12700
H1660       H  0.68730635  0.46877710  0.14954525     0.14700
C1661       C  0.82177294  0.49605592  0.16871454    -0.05300
C1662       C  0.81559249  0.47834845  0.14452248    -0.05300
C1663       C  0.83463372  0.47690340  0.12080038    -0.23400
C1664       C  0.86059704  0.49280611  0.12086178     0.18800
C1665       C  0.86740844  0.01007552  0.14523199     0.16000
C1666       C  0.84781606  0.01183802  0.16880514    -0.18500
C1667       C  0.89365807  0.02550437  0.14559382    -0.20300
C1668       C  0.91327329  0.02308192  0.12239607    -0.12800
C1669       C  0.90677964  0.50590505  0.09794050     0.03800
C1670       C  0.88009280  0.49105549  0.09718879    -0.25000
H1671       H  0.79585897  0.46557615  0.14400959     0.08900
H1672       H  0.82914155  0.46312435  0.10247802     0.12500
H1673       H  0.85272482  0.02572941  0.18723255     0.12400
H1674       H  0.89920572  0.03917815  0.16398915     0.12200
H1675       H  0.93350409  0.03502586  0.12345896     0.12700
H1676       H  0.87491484  0.47746839  0.07861570     0.14700
C1677       C  0.49447761  0.17084344  0.31737910    -0.05300
C1678       C  0.51151310  0.14650722  0.30986327    -0.05300
C1679       C  0.51452772  0.12295960  0.32906163    -0.23400
C1680       C  0.50095225  0.12352289  0.35639424     0.18800
C1681       C  0.98383525  0.14766802  0.36380587     0.16000
C1682       C  0.98047170  0.17094749  0.34410298    -0.18500
C1683       C  0.97046784  0.14851904  0.39119392    -0.20300
C1684       C  0.97488459  0.12592975  0.41120631    -0.12800
C1685       C  0.49221333  0.10183593  0.40423694     0.03800
C1686       C  0.50475426  0.10043203  0.37633769    -0.25000
H1687       H  0.52268048  0.14586813  0.28910299     0.08900
H1688       H  0.52785981  0.10453957  0.32272340     0.12500
H1689       H  0.96701639  0.18950210  0.34983254     0.12400
H1690       H  0.95695374  0.16687770  0.39732594     0.12200
H1691       H  0.96445700  0.12725274  0.43232036     0.12700
H1692       H  0.51807291  0.08181623  0.37048716     0.14700
C1693       C  0.49767796  0.32225293  0.32802443    -0.05300
C1694       C  0.97985773  0.31605467  0.35339217    -0.05300
C1695       C  0.97917910  0.33516715  0.37703680    -0.23400
C1696       C  0.99491396  0.36124969  0.37613547     0.18800
C1697       C  0.51214652  0.36803585  0.35075997     0.16000
C1698       C  0.51373705  0.34829242  0.32744397    -0.18500
C1699       C  0.52667203  0.39481436  0.34943604    -0.20300
C1700       C  0.52428626  0.41468642  0.37233135    -0.12800
C1701       C  0.50797672  0.40785415  0.39729607     0.03800
C1702       C  0.99360296  0.38103235  0.39941742    -0.25000
H1703       H  0.96692799  0.29638745  0.35428371     0.08900
H1704       H  0.96593738  0.32979072  0.39579846     0.12500
H1705       H  0.52705226  0.35335859  0.30863438     0.12400
H1706       H  0.53954843  0.40056408  0.33053021     0.12200
H1707       H  0.53552360  0.43534373  0.37069085     0.12700
H1708       H  0.98069156  0.37593184  0.41851183     0.14700
C1709       C  0.50731734  0.40371650  0.09487391    -0.05300
C1710       C  0.53035555  0.40636991  0.11473297    -0.05300
C1711       C  0.53196074  0.38842812  0.13927942    -0.23400
C1712       C  0.51024610  0.36781377  0.14461193     0.18800
C1713       C  0.98597188  0.36611661  0.12567703     0.16000
C1714       C  0.98492224  0.38383443  0.10060603    -0.18500
C1715       C  0.96364963  0.34630126  0.13171973    -0.20300
C1716       C  0.96541336  0.32817975  0.15620205    -0.12800
C1717       C  0.49033882  0.32864547  0.17415421     0.03800
C1718       C  0.51173997  0.34972101  0.16930957    -0.25000
H1719       H  0.54700802  0.42267469  0.11134019     0.08900
H1720       H  0.55000200  0.39090021  0.15424242     0.12500
H1721       H  0.96648412  0.38274773  0.08592587     0.12400
H1722       H  0.94517172  0.34438744  0.11721647     0.12200
H1723       H  0.94852060  0.31223141  0.15999036     0.12700
H1724       H  0.52997670  0.35126208  0.18419314     0.14700
C1725       C  0.48692547  0.18010369  0.16806855    -0.05300
C1726       C  0.97081157  0.18660225  0.14272822    -0.05300
C1727       C  0.97066308  0.16695763  0.11947984    -0.23400
C1728       C  0.98705876  0.14117126  0.12097777     0.18800
C1729       C  0.50273210  0.13409259  0.14673412     0.16000
C1730       C  0.50305871  0.15410045  0.16982660    -0.18500
C1731       C  0.51827421  0.10785008  0.14871960    -0.20300
C1732       C  0.51778360  0.08801222  0.12568624    -0.12800
C1733       C  0.50224023  0.09428776  0.09999084     0.03800
C1734       C  0.98700122  0.12125499  0.09773090    -0.25000
H1735       H  0.95787632  0.20631443  0.14120408     0.08900
H1736       H  0.95765264  0.17188260  0.10038314     0.12500
H1737       H  0.51593062  0.14957435  0.18913876     0.12400
H1738       H  0.53068917  0.10259496  0.16813349     0.12200
H1739       H  0.52993483  0.06784849  0.12780624     0.12700
H1740       H  0.97431227  0.12589038  0.07832782     0.14700
N1741       N  0.49091770  0.25376229  0.70346312    -0.36700
N1742       N  0.49762933  0.29670905  0.74974734    -0.57300
N1743       N  0.49364656  0.24936951  0.79175071    -0.36700
N1744       N  0.48968202  0.20717776  0.74496517    -0.57300
C1745       C  0.49972952  0.27770354  0.68885832     0.26900
C1746       C  0.49660617  0.23053627  0.68626666     0.26900
C1747       C  0.50331990  0.27161113  0.80843559     0.26900
C1748       C  0.50020239  0.22418853  0.80587010     0.26900
C1749       C  0.49079433  0.31438200  0.72708522     0.35500
C1750       C  0.49261064  0.31216239  0.77428432     0.35500
C1751       C  0.48116803  0.19263417  0.72090785     0.35500
C1752       C  0.48270191  0.19025415  0.76796168     0.35500
C1753       C  0.51152549  0.26971402  0.66225341    -0.22000
C1754       C  0.50976196  0.23982173  0.66070374    -0.22000
C1755       C  0.51642147  0.26045799  0.83334407    -0.22000
C1756       C  0.51454451  0.23053281  0.83168363    -0.22000
C1757       C  0.48170587  0.34132705  0.73712946    -0.23000
C1758       C  0.48269279  0.33989029  0.76710308    -0.23000
C1759       C  0.46819611  0.16652040  0.72861452    -0.23000
C1760       C  0.46919638  0.16498981  0.75854392    -0.23000
C1761       C  0.49396631  0.30655181  0.69753632    -0.18400
C1762       C  0.48786392  0.20165256  0.69229531    -0.18400
C1763       C  0.49179135  0.19590588  0.79676010    -0.18400
C1764       C  0.49815002  0.30160444  0.80283724    -0.18400
H1765       H  0.51987903  0.28402903  0.64545388     0.14500
H1766       H  0.51667175  0.22655187  0.64250912     0.14500
H1767       H  0.52604299  0.27263964  0.85104759     0.14500
H1768       H  0.52251206  0.21525876  0.84786730     0.14500
H1769       H  0.47497563  0.35996783  0.72423303     0.12800
H1770       H  0.47660585  0.35724561  0.78181711     0.12800
H1771       H  0.45961020  0.15001757  0.71419673     0.12800
H1772       H  0.46159597  0.14701649  0.77180862     0.12800
H1773       H  0.47804551  0.25382218  0.72211902     0.26100
H1774       H  0.48020846  0.25143615  0.77359027     0.26100
O1775       O  0.49998184  0.08256041  0.54937794    -0.80200
O1776       O  0.50368066  0.41658202  0.54458898    -0.81800
O1777       O  0.95549846  0.50283862  0.58147706    -0.78800
O1778       O  0.55051638  0.49659987  0.58041176    -0.77200
O1779       O  0.58548773  0.49670022  0.54496456    -0.79000
O1780       O  0.91924710  0.50076953  0.54730158    -0.79900
O1781       O  0.50412727  0.45207990  0.57964560    -0.81200
O1782       O  0.50377473  0.04582819  0.58300109    -0.81500
Eu1783     Eu  0.50250433  0.49978592  0.55653893     2.39200
O1784       O  0.53201998  0.47174285  0.52596942    -0.89000
O1785       O  0.97187918  0.02906449  0.52829877    -0.92600
C1786       C  0.50192037  0.07295833  0.57586815     1.02100
C1787       C  0.50459612  0.42531916  0.57137207     1.01900
C1788       C  0.92845349  0.50281200  0.57396243     1.01800
C1789       C  0.57716656  0.49509293  0.57175549     0.99700
H1790       H  0.96173665  0.45720933  0.53934840     0.29400
O1791       O  0.97345908  0.46982350  0.52722871    -1.01400
H1792       H  0.54397394  0.04255505  0.54109792     0.29500
O1793       O  0.53196827  0.03078526  0.52858389    -1.03900
O1794       O  0.50472551  0.41931916  0.94766250    -0.81200
O1795       O  0.49718691  0.08566166  0.95305429    -0.80700
O1796       O  0.92039957  0.45019702  0.99613846    -0.79100
O1797       O  0.58619966  0.45476747  0.99909103    -0.82500
O1798       O  0.58459202  0.05064575  0.99953262    -0.80300
O1799       O  0.91815302  0.04734540  0.99600678    -0.79000
O1800       O  0.95585491  0.50277795  0.91486232    -0.80500
O1801       O  0.54877732  0.50808404  0.91493711    -0.82400
O1802       O  0.91956432  0.49914038  0.94877912    -0.79200
O1803       O  0.58473919  0.50423638  0.94919262    -0.81900
O1804       O  0.95696812  0.41636962  0.99326919    -0.77600
O1805       O  0.95253471  0.08329476  0.99992076    -0.77600
O1806       O  0.54835640  0.08499170  0.99826569    -0.77300
O1807       O  0.55226614  0.41837538  0.99798882    -0.80800
O1808       O  0.50536176  0.45637488  0.91409457    -0.80200
O1809       O  0.49904818  0.05179546  0.91657123    -0.78500
Eu1810     Eu  0.50355003  0.44151710  0.99649078     2.39800
Eu1811     Eu  0.50093107  0.06034865  0.00023416     2.39600
Eu1812     Eu  0.94249447  0.49926864  0.99821137     2.38400
Eu1813     Eu  0.56150345  0.50234016  0.99757788     2.39900
Eu1814     Eu  0.50240457  0.50326225  0.93960372     2.39800
O1815       O  0.53124027  0.03271213  0.96953569    -0.92900
O1816       O  0.97365815  0.47179568  0.96813231    -0.91800
C1817       C  0.50576234  0.42913407  0.92124992     1.02200
C1818       C  0.49671931  0.07825274  0.92592060     1.01000
C1819       C  0.92984776  0.42370603  0.99373131     1.00300
C1820       C  0.57874706  0.42763242  0.99946622     1.02400
C1821       C  0.57538139  0.07729557  0.99867747     1.01300
C1822       C  0.92615936  0.07431927  0.99727672     1.00100
C1823       C  0.92894959  0.50127102  0.92220012     1.00200
C1824       C  0.57560197  0.50716221  0.92269847     1.02800
H1825       H  0.95967846  0.04253280  0.95813454     0.30200
O1826       O  0.97206549  0.03057732  0.97025126    -1.05100
H1827       H  0.54522183  0.46119614  0.95509892     0.32200
O1828       O  0.53273883  0.47259137  0.96756317    -1.07700
N1829       N  0.74834457  0.49729908  0.70466573    -0.36700
N1830       N  0.79577492  0.49820336  0.74697555    -0.57300
N1831       N  0.75289645  0.49550093  0.79317750    -0.36700
N1832       N  0.70598252  0.49786304  0.75146662    -0.57300
C1833       C  0.77127797  0.50438587  0.68761114     0.26900
C1834       C  0.72385848  0.50511959  0.69011422     0.26900
C1835       C  0.77719996  0.50218525  0.80817626     0.26900
C1836       C  0.73012197  0.50210418  0.81048452     0.26900
C1837       C  0.81067076  0.49154274  0.72244819     0.35500
C1838       C  0.81293756  0.49054074  0.76978082     0.35500
C1839       C  0.68839126  0.49233253  0.72862810     0.35500
C1840       C  0.69102565  0.49035855  0.77562911     0.35500
C1841       C  0.76121885  0.51704675  0.66198546    -0.22000
C1842       C  0.73132756  0.51752533  0.66357511    -0.22000
C1843       C  0.76982029  0.51364084  0.83513152    -0.22000
C1844       C  0.74001685  0.51366391  0.83656308    -0.22000
C1845       C  0.83744937  0.47966240  0.72976838    -0.23000
C1846       C  0.83890398  0.47911538  0.75976652    -0.23000
C1847       C  0.66213392  0.48119863  0.73828616    -0.23000
C1848       C  0.66384891  0.47985033  0.76815121    -0.23000
C1849       C  0.80079195  0.49747515  0.69369025    -0.18400
C1850       C  0.69505239  0.49947420  0.69946652    -0.18400
C1851       C  0.70095299  0.49523896  0.80427738    -0.18400
C1852       C  0.80562236  0.49484973  0.79942091    -0.18400
H1853       H  0.77407194  0.52483476  0.64384336     0.14500
H1854       H  0.71676487  0.52572404  0.64690209     0.14500
H1855       H  0.78442269  0.52049675  0.85228360     0.14500
H1856       H  0.72714298  0.52065369  0.85500438     0.14500
H1857       H  0.85419852  0.47211972  0.71507153     0.12800
H1858       H  0.85694845  0.47117093  0.77270408     0.12800
H1859       H  0.64361943  0.47492198  0.72520559     0.12800
H1860       H  0.64690865  0.47238399  0.78267456     0.12800
H1861       H  0.74928967  0.48465541  0.72351510     0.26100
H1862       H  0.75204801  0.48319449  0.77417650     0.26100
N1863       N  0.75614365  0.20573196  0.01143023    -0.36700
N1864       N  0.79688897  0.25390152  0.00567051    -0.57300
N1865       N  0.74856638  0.29446301  0.00627108    -0.36700
N1866       N  0.70802954  0.24603454  0.00982368    -0.57300
C1867       C  0.78082424  0.19146768  0.00411369     0.26900
C1868       C  0.73367901  0.18741979  0.00640755     0.26900
C1869       C  0.77051223  0.31166642  0.99679642     0.26900
C1870       C  0.72331209  0.30728407  0.99800332     0.26900
C1871       C  0.81536208  0.23201833  0.01280813     0.35500
C1872       C  0.81135614  0.27912911  0.01018349     0.35500
C1873       C  0.69403991  0.22170045  0.01858671     0.35500
C1874       C  0.68988336  0.26860444  0.01495173     0.35500
C1875       C  0.77388113  0.16367167  0.99444404    -0.22000
C1876       C  0.74417020  0.16131218  0.99548557    -0.22000
C1877       C  0.75907897  0.33558714  0.98216738    -0.22000
C1878       C  0.72931462  0.33278969  0.98285611    -0.22000
C1879       C  0.84176695  0.24340711  0.02169785    -0.23000
C1880       C  0.83906918  0.27321440  0.02049492    -0.23000
C1881       C  0.66705646  0.22889059  0.02988834    -0.23000
C1882       C  0.66437615  0.25866559  0.02748229    -0.23000
C1883       C  0.80930482  0.20203673  0.00893662    -0.18400
C1884       C  0.70426666  0.19309383  0.01343946    -0.18400
C1885       C  0.69511616  0.29747026  0.00558970    -0.18400
C1886       C  0.80041468  0.30712301  0.00282245    -0.18400
H1887       H  0.78844559  0.14643576  0.98779923     0.14500
H1888       H  0.73182692  0.14222356  0.98945086     0.14500
H1889       H  0.77094097  0.35330894  0.97215293     0.14500
H1890       H  0.71386969  0.34799469  0.97348978     0.14500
H1891       H  0.86114040  0.23163393  0.02809635     0.12800
H1892       H  0.85583630  0.28865005  0.02619358     0.12800
H1893       H  0.65073814  0.21418140  0.03830851     0.12800
H1894       H  0.64559697  0.27144870  0.03368513     0.12800
H1895       H  0.75505996  0.22536575  0.02268527     0.26100
H1896       H  0.75062480  0.27684770  0.02051134     0.26100
C1897       C  0.82079298  0.33260334  0.00156112    -0.05300
C1898       C  0.81420740  0.35836058  0.51696394    -0.05300
C1899       C  0.83360725  0.38177085  0.51726692    -0.23400
C1900       C  0.86041056  0.37970465  0.50293610     0.18800
C1901       C  0.86735652  0.35402405  0.98734970     0.16000
C1902       C  0.84724789  0.33098510  0.98618631    -0.18500
C1903       C  0.89461100  0.35157774  0.97391931    -0.20300
C1904       C  0.91488248  0.37415755  0.97615049    -0.12800
C1905       C  0.90809456  0.39994870  0.99126289     0.03800
C1906       C  0.88059519  0.40265249  0.50434157    -0.25000
H1907       H  0.79412577  0.36016577  0.52909263     0.08900
H1908       H  0.82793407  0.40123883  0.52933351     0.12500
H1909       H  0.85249389  0.31144107  0.97402471     0.12400
H1910       H  0.90043313  0.33201540  0.96206833     0.12200
H1911       H  0.93585187  0.37155108  0.96579004     0.12700
H1912       H  0.87518880  0.42230074  0.51626450     0.14700
C1913       C  0.90367717  0.09687952  0.99477703    -0.05300
C1914       C  0.88995223  0.10191292  0.96791706    -0.05300
C1915       C  0.86993413  0.12470497  0.96484044    -0.23400
C1916       C  0.86291888  0.14228733  0.98881980     0.18800
C1917       C  0.87641336  0.13698672  0.51609374     0.16000
C1918       C  0.89722018  0.11471459  0.51871243    -0.18500
C1919       C  0.86855234  0.15375062  0.54034553    -0.20300
C1920       C  0.84686888  0.17497351  0.53786772    -0.12800
C1921       C  0.83352005  0.18057032  0.01086304     0.03800
C1922       C  0.84228976  0.16474407  0.98619619    -0.25000
H1923       H  0.89520629  0.08855461  0.94919698     0.08900
H1924       H  0.85977048  0.12841366  0.94382910     0.16500
H1925       H  0.90808437  0.11090213  0.53937420     0.12400
H1926       H  0.87860006  0.14990561  0.56138697     0.12200
H1927       H  0.84027866  0.18694008  0.55708690     0.12700
H1928       H  0.83214937  0.16917901  0.96529142     0.14700
C1929       C  0.60243829  0.40586902  0.00303057    -0.05300
C1930       C  0.62704257  0.41321189  0.51943750    -0.05300
C1931       C  0.64898810  0.39285954  0.52479237    -0.23400
C1932       C  0.64752731  0.36505543  0.51245676     0.18800
C1933       C  0.62347478  0.35760009  0.49478700     0.16000
C1934       C  0.60068115  0.37780614  0.99082456    -0.18500
C1935       C  0.62307047  0.33033376  0.98104459    -0.20300
C1936       C  0.64626528  0.31081979  0.98460116    -0.12800
C1937       C  0.67001918  0.31793485  0.00248770     0.03800
C1938       C  0.67022242  0.34498472  0.51672479    -0.25000
H1939       H  0.62934214  0.43485367  0.52824394     0.08900
H1940       H  0.66747791  0.39914884  0.53796073     0.12500
H1941       H  0.58198034  0.37198624  0.97773204     0.12400
H1942       H  0.60501797  0.32427350  0.96718924     0.12200
H1943       H  0.64579226  0.29015640  0.97324559     0.12700
H1944       H  0.68851495  0.35064763  0.53047363     0.14700
C1945       C  0.59723707  0.10087172  0.99787384    -0.05300
C1946       C  0.59171324  0.12629683  0.98158996    -0.05300
C1947       C  0.61196411  0.14888899  0.98071664    -0.23400
C1948       C  0.63781232  0.14681303  0.99674619     0.18800
C1949       C  0.64350945  0.12151959  0.51338910     0.16000
C1950       C  0.62342379  0.09845678  0.51341761    -0.18500
C1951       C  0.66894878  0.11997777  0.53020083    -0.20300
C1952       C  0.68837895  0.14337580  0.53058994    -0.12800
C1953       C  0.68313797  0.16841282  0.01371764     0.03800
C1954       C  0.65787206  0.16978769  0.99652777    -0.25000
H1955       H  0.57177182  0.12855389  0.96922761     0.08900
H1956       H  0.60722143  0.16815895  0.96780999     0.12500
H1957       H  0.62774683  0.07901918  0.52624288     0.12400
H1958       H  0.67362253  0.10085705  0.54334668     0.12200
H1959       H  0.70764650  0.14191766  0.54408539     0.12700
H1960       H  0.65376746  0.18890533  0.98315664     0.14700
C1961       C  0.90795573  0.50336117  0.89785844    -0.05300
C1962       C  0.91312602  0.02352154  0.87553303    -0.05300
C1963       C  0.89451972  0.02559516  0.85157015    -0.23400
C1964       C  0.87076669  0.00680265  0.84909276     0.18800
C1965       C  0.86577179  0.98566539  0.87111645     0.16000
C1966       C  0.88400992  0.48460730  0.89568776    -0.18500
C1967       C  0.84199153  0.46703710  0.86835765    -0.20300
C1968       C  0.82334780  0.46925127  0.84436070    -0.12800
C1969       C  0.82777216  0.49062095  0.82278149     0.03800
C1970       C  0.85180897  0.00896503  0.82509632    -0.25000
H1971       H  0.93147512  0.03820042  0.87679593     0.08900
H1972       H  0.89879696  0.04182959  0.83491708     0.12500
H1973       H  0.88021572  0.46851084  0.91261096     0.12400
H1974       H  0.83779897  0.45062431  0.88485163     0.12200
H1975       H  0.80493753  0.45468439  0.84290452     0.12700
H1976       H  0.85509671  0.02568165  0.80866928     0.14700
C1977       C  0.59713455  0.50942870  0.89924377    -0.05300
C1978       C  0.59170940  0.02757315  0.87535899    -0.05300
C1979       C  0.61137070  0.02896561  0.85230941    -0.23400
C1980       C  0.63630117  0.01141581  0.85257435     0.18800
C1981       C  0.64166790  0.99255602  0.87648463     0.16000
C1982       C  0.62221143  0.49204435  0.89976906    -0.18500
C1983       C  0.66594877  0.47427005  0.87591949    -0.20300
C1984       C  0.68491754  0.47475885  0.85222928    -0.12800
C1985       C  0.68004554  0.49392772  0.82878076     0.03800
C1986       C  0.65579881  0.01219424  0.82920135    -0.25000
H1987       H  0.57232075  0.04099850  0.87454708     0.08900
H1988       H  0.60687690  0.04343196  0.83411638     0.12500
H1989       H  0.62607899  0.47738538  0.91797299     0.12400
H1990       H  0.67022677  0.45944166  0.89386730     0.12200
H1991       H  0.70359533  0.46034542  0.85222972     0.12700
H1992       H  0.65205497  0.02698989  0.81108175     0.14700
C1993       C  0.60003033  0.49112065  0.59395938    -0.05300
C1994       C  0.62259339  0.47107906  0.58916984    -0.05300
C1995       C  0.64542357  0.46824244  0.60903999    -0.23400
C1996       C  0.64625503  0.48579146  0.63395543     0.18800
C1997       C  0.62321879  0.00564029  0.63956346     0.16000
C1998       C  0.60002008  0.00784629  0.61971092    -0.18500
C1999       C  0.62391593  0.02302783  0.66460794    -0.20300
C2000       C  0.64743677  0.02127624  0.68382127    -0.12800
C2001       C  0.67062284  0.50189116  0.67823452     0.03800
C2002       C  0.66970502  0.48395685  0.65350327    -0.25000
H2003       H  0.62247659  0.45758286  0.57000088     0.08900
H2004       H  0.66262165  0.45267833  0.60468241     0.12500
H2005       H  0.58243857  0.02309929  0.62368032     0.12400
H2006       H  0.60639203  0.03813653  0.66921839     0.12200
H2007       H  0.64761019  0.03500158  0.70298985     0.12700
H2008       H  0.68720599  0.46859225  0.64961083     0.14700
C2009       C  0.82182415  0.49590868  0.66873478    -0.05300
C2010       C  0.81566221  0.47815508  0.64457174    -0.05300
C2011       C  0.83470965  0.47668648  0.62085448    -0.23400
C2012       C  0.86065827  0.49261506  0.62089111     0.18800
C2013       C  0.86736071  0.01021352  0.64522310     0.16000
C2014       C  0.84777559  0.01195789  0.66880487    -0.18500
C2015       C  0.89362620  0.02561580  0.64559916    -0.20300
C2016       C  0.91324244  0.02318976  0.62240149    -0.12800
C2017       C  0.90681542  0.50575731  0.59793939     0.03800
C2018       C  0.88014986  0.49086544  0.59721267    -0.25000
H2019       H  0.79593588  0.46537093  0.64407478     0.08900
H2020       H  0.82922950  0.46287690  0.60255161     0.12500
H2021       H  0.85270109  0.02581623  0.68725272     0.12400
H2022       H  0.89918868  0.03926466  0.66400854     0.12200
H2023       H  0.93348902  0.03510555  0.62347931     0.12700
H2024       H  0.87498269  0.47725665  0.57865238     0.14700
C2025       C  0.49449512  0.17083167  0.81738238    -0.05300
C2026       C  0.51154944  0.14650532  0.80988006    -0.05300
C2027       C  0.51457494  0.12296719  0.82908806    -0.23400
C2028       C  0.50098727  0.12353008  0.85641474     0.18800
C2029       C  0.98383372  0.14766571  0.86380099     0.16000
C2030       C  0.98046407  0.17094091  0.84409433    -0.18500
C2031       C  0.97045036  0.14850897  0.89118182    -0.20300
C2032       C  0.97486743  0.12592120  0.91119602    -0.12800
C2033       C  0.49223978  0.10185167  0.90425944     0.03800
C2034       C  0.50479741  0.10044920  0.87636757    -0.25000
H2035       H  0.52272461  0.14586810  0.78912389     0.08900
H2036       H  0.52792391  0.10455520  0.82276170     0.12500
H2037       H  0.96699342  0.18948676  0.84981590     0.12400
H2038       H  0.95692118  0.16685914  0.89730574     0.12200
H2039       H  0.96442536  0.12723561  0.93230348     0.12700
H2040       H  0.51813193  0.08184084  0.87052921     0.14700
C2041       C  0.49774796  0.32221957  0.82803931    -0.05300
C2042       C  0.97980981  0.31606078  0.85341360    -0.05300
C2043       C  0.97912483  0.33517316  0.87705941    -0.23400
C2044       C  0.99487465  0.36124757  0.87617138     0.18800
C2045       C  0.51225968  0.36797985  0.85078777     0.16000
C2046       C  0.51383255  0.34824236  0.82746588    -0.18500
C2047       C  0.52681476  0.39474264  0.84947473    -0.20300
C2048       C  0.52443058  0.41461868  0.87236671    -0.12800
C2049       C  0.50809227  0.40780474  0.89731663     0.03800
C2050       C  0.99355776  0.38103205  0.89945345    -0.25000
H2051       H  0.96686962  0.29640001  0.85429482     0.08900
H2052       H  0.96586679  0.32980351  0.89581139     0.12500
H2053       H  0.52715164  0.35330069  0.80865684     0.12400
H2054       H  0.53970805  0.40047997  0.83057678     0.12200
H2055       H  0.53568434  0.43526747  0.87073259     0.12700
H2056       H  0.98062862  0.37594029  0.91853802     0.14700
C2057       C  0.50726529  0.40373130  0.59489916    -0.05300
C2058       C  0.53026134  0.40644422  0.61480051    -0.05300
C2059       C  0.53186151  0.38851771  0.63935844    -0.23400
C2060       C  0.51018448  0.36785591  0.64465991     0.18800
C2061       C  0.98599103  0.36618085  0.62572326     0.16000
C2062       C  0.98492361  0.38390177  0.60065511    -0.18500
C2063       C  0.96359686  0.34647571  0.63186074    -0.20300
C2064       C  0.96537452  0.32834414  0.65633541    -0.12800
C2065       C  0.49031862  0.32864270  0.67417268     0.03800
C2066       C  0.51167834  0.34976974  0.66936342    -0.25000
H2067       H  0.54688436  0.42278443  0.61143180     0.08900
H2068       H  0.54987061  0.39103625  0.65435247     0.12500
H2069       H  0.96641720  0.38290682  0.58605466     0.12400
H2070       H  0.94504916  0.34465339  0.61743514     0.12200
H2071       H  0.94842036  0.31247889  0.66019508     0.12700
H2072       H  0.52988746  0.35135374  0.68427634     0.14700
C2073       C  0.48690508  0.18009723  0.66807634    -0.05300
C2074       C  0.97076649  0.18662481  0.64273927    -0.05300
C2075       C  0.97060875  0.16697527  0.61949446    -0.23400
C2076       C  0.98702676  0.14120201  0.62097981     0.18800
C2077       C  0.50275816  0.13410769  0.64672474     0.16000
C2078       C  0.50306693  0.15411046  0.66982381    -0.18500
C2079       C  0.51833203  0.10788254  0.64869652    -0.20300
C2080       C  0.51785172  0.08804714  0.62565923    -0.12800
C2081       C  0.50228784  0.09430766  0.59997216     0.03800
C2082       C  0.98696153  0.12128067  0.59773730    -0.25000
H2083       H  0.95781437  0.20632663  0.64122644     0.08900
H2084       H  0.95757438  0.17188620  0.60041062     0.12500
H2085       H  0.51594858  0.14959438  0.68913171     0.12400
H2086       H  0.53076112  0.10263717  0.66810401     0.12200
H2087       H  0.53002327  0.06789488  0.62777104     0.12700
H2088       H  0.97424857  0.12590053  0.57834631     0.14700
N2089       N  0.49054760  0.75383397  0.20352598    -0.36700
N2090       N  0.49736330  0.79672002  0.24990522    -0.57300
N2091       N  0.49348987  0.74932905  0.29178213    -0.36700
N2092       N  0.48937312  0.70721019  0.24490279    -0.57300
C2093       C  0.49937451  0.77780645  0.18898764     0.26900
C2094       C  0.49622133  0.73064852  0.18626503     0.26900
C2095       C  0.50323461  0.77152260  0.30849305     0.26900
C2096       C  0.50010261  0.72411265  0.30580381     0.26900
C2097       C  0.49045068  0.81441602  0.22728909     0.35500
C2098       C  0.49239792  0.81213072  0.27447969     0.35500
C2099       C  0.48083510  0.69268726  0.22084163     0.35500
C2100       C  0.48246545  0.69024671  0.26788719     0.35500
C2101       C  0.51117050  0.76987746  0.16236245    -0.22000
C2102       C  0.50938179  0.73999153  0.16072777    -0.22000
C2103       C  0.51644378  0.76030051  0.33331258    -0.22000
C2104       C  0.51455291  0.73038172  0.33157620    -0.22000
C2105       C  0.48135089  0.84133411  0.23739984    -0.23000
C2106       C  0.48242380  0.83985553  0.26737127    -0.23000
C2107       C  0.46791225  0.66654607  0.22853525    -0.23000
C2108       C  0.46897345  0.66497639  0.25846185    -0.23000
C2109       C  0.49358841  0.80663384  0.19772376    -0.18400
C2110       C  0.48749700  0.70174720  0.19223577    -0.18400
C2111       C  0.49163328  0.69586116  0.29666409    -0.18400
C2112       C  0.49805177  0.80152967  0.30299190    -0.18400
H2113       H  0.51953198  0.78423143  0.14560018     0.14500
H2114       H  0.51628536  0.72676534  0.14249930     0.14500
H2115       H  0.52614408  0.77243087  0.35100812     0.14500
H2116       H  0.52257851  0.71505912  0.34768581     0.14500
H2117       H  0.47456761  0.85998717  0.22454923     0.12800
H2118       H  0.47636414  0.85718100  0.28213207     0.12800
H2119       H  0.45933286  0.65004713  0.21410906     0.12800
H2120       H  0.46143530  0.64696869  0.27171618     0.12800
H2121       H  0.47767523  0.75386187  0.22218280     0.26100
H2122       H  0.47997540  0.75143736  0.27368322     0.26100
O2123       O  0.49996579  0.58269811  0.04923375    -0.80200
O2124       O  0.50359193  0.91652858  0.04476305    -0.81800
O2125       O  0.95558387  0.00289142  0.08152765    -0.78800
O2126       O  0.55053045  0.99659824  0.08056029    -0.77200
O2127       O  0.58547377  0.99674103  0.04509117    -0.79000
O2128       O  0.91935142  0.00079524  0.04733537    -0.79900
O2129       O  0.50408044  0.95205040  0.07978721    -0.81200
O2130       O  0.50371696  0.54596107  0.08286085    -0.81500
Eu2131     Eu  0.50253189  0.99970327  0.05665110     2.39200
O2132       O  0.53205989  0.97162946  0.02612449    -0.89000
O2133       O  0.97174316  0.52897816  0.02827968    -0.92600
C2134       C  0.50186666  0.57309895  0.07572746     1.02100
C2135       C  0.50450222  0.92528756  0.07153946     1.01900
C2136       C  0.92854045  0.00282578  0.07400270     1.01800
C2137       C  0.57718014  0.99515014  0.07189557     0.99700
H2138       H  0.96185639  0.95729063  0.03943137     0.29400
O2139       O  0.97358724  0.96988771  0.02730302    -1.01400
H2140       H  0.54398250  0.54262137  0.04101658     0.29500
O2141       O  0.53197869  0.53085726  0.02849292    -1.03900
O2142       O  0.50480379  0.91924509  0.44784376    -0.81200
O2143       O  0.49718985  0.58575122  0.45293609    -0.80700
O2144       O  0.92058166  0.95026951  0.49617447    -0.79100
O2145       O  0.58615791  0.95466394  0.49925519    -0.82500
O2146       O  0.58463984  0.55073712  0.49945272    -0.80300
O2147       O  0.91796354  0.54722762  0.49604626    -0.79000
O2148       O  0.95597785  0.00261490  0.41490375    -0.80500
O2149       O  0.54869198  0.00793525  0.41502587    -0.82400
O2150       O  0.91968397  0.99905952  0.44882225    -0.79200
O2151       O  0.58467683  0.00408596  0.44926137    -0.81900
O2152       O  0.95713660  0.91641028  0.49337572    -0.77600
O2153       O  0.95234597  0.58317399  0.49997771    -0.77600
O2154       O  0.54842504  0.58510234  0.49812058    -0.77300
O2155       O  0.55222180  0.91827467  0.49817790    -0.80800
O2156       O  0.50534966  0.95626690  0.41423449    -0.80200
O2157       O  0.49908747  0.55186531  0.41647259    -0.78500
Eu2158     Eu  0.50354557  0.94145929  0.49666385     2.39800
Eu2159     Eu  0.50098701  0.56045489  0.50010865     2.39600
Eu2160     Eu  0.94263566  0.99933552  0.49825221     2.38400
Eu2161     Eu  0.56147943  0.00225495  0.49767827     2.39900
Eu2162     Eu  0.50229611  0.00317044  0.43971691     2.39800
O2163       O  0.53132308  0.53283155  0.46942009    -0.92900
O2164       O  0.97382401  0.97177912  0.46827815    -0.91800
C2165       C  0.50583128  0.92903335  0.42142039     1.02200
C2166       C  0.49671424  0.57831821  0.42581115     1.01000
C2167       C  0.93002269  0.92377671  0.49379011     1.00300
C2168       C  0.57869986  0.92752920  0.49965251     1.02400
C2169       C  0.57544807  0.57739298  0.49855792     1.01300
C2170       C  0.92597293  0.57419565  0.49734173     1.00100
C2171       C  0.92907176  0.00111182  0.42223741     1.00200
C2172       C  0.57552776  0.00698935  0.42276624     1.02800
H2173       H  0.95952294  0.54252245  0.45813729     0.30200
O2174       O  0.97191443  0.53054753  0.47023045    -1.05100
H2175       H  0.54515049  0.96113549  0.45523389     0.32200
O2176       O  0.53266785  0.97253627  0.46769228    -1.07700
N2177       N  0.74838704  0.99716965  0.20474270    -0.36700
N2178       N  0.79585498  0.99785190  0.24698468    -0.57300
N2179       N  0.75303199  0.99524758  0.29328365    -0.36700
N2180       N  0.70606935  0.99786922  0.25164618    -0.57300
C2181       C  0.77131870  0.00411050  0.18762165     0.26900
C2182       C  0.72389913  0.00506143  0.19023209     0.26900
C2183       C  0.77738022  0.00186710  0.30823839     0.26900
C2184       C  0.73029880  0.00189739  0.31063339     0.26900
C2185       C  0.81072287  0.99119876  0.22243594     0.35500
C2186       C  0.81304300  0.99017742  0.26976789     0.35500
C2187       C  0.68847942  0.99230779  0.22881215     0.35500
C2188       C  0.69116517  0.99024699  0.27581021     0.35500
C2189       C  0.76125805  0.01673988  0.16198196    -0.22000
C2190       C  0.73137009  0.01737180  0.16364583    -0.22000
C2191       C  0.77007152  0.01332566  0.33521286    -0.22000
C2192       C  0.74026755  0.01342306  0.33669739    -0.22000
C2193       C  0.83750853  0.97931363  0.22972126    -0.23000
C2194       C  0.83899623  0.97875312  0.25971667    -0.23000
C2195       C  0.66228677  0.98102510  0.23847583    -0.23000
C2196       C  0.66403349  0.97962557  0.26833653    -0.23000
C2197       C  0.80082811  0.99714932  0.19368547    -0.18400
C2198       C  0.69508660  0.99950737  0.19964730    -0.18400
C2199       C  0.70110059  0.99510499  0.30446251    -0.18400
C2200       C  0.80577739  0.99448687  0.29942289    -0.18400
H2201       H  0.77410526  0.02442226  0.14379070     0.14500
H2202       H  0.71681074  0.02559738  0.14698336     0.14500
H2203       H  0.78472050  0.02014278  0.35234041     0.14500
H2204       H  0.72744271  0.02044264  0.35516123     0.14500
H2205       H  0.85424383  0.97178372  0.21500153     0.12800
H2206       H  0.85705799  0.97080765  0.27262912     0.12800
H2207       H  0.64379814  0.97466444  0.22540000     0.12800
H2208       H  0.64714866  0.97203508  0.28286066     0.12800
H2209       H  0.74931405  0.98457373  0.22362365     0.26100
H2210       H  0.75212173  0.98295998  0.27427217     0.26100
N2211       N  0.75628935  0.70582116  0.51127928    -0.36700
N2212       N  0.79705401  0.75403471  0.50571136    -0.57300
N2213       N  0.74873040  0.79459750  0.50641925    -0.36700
N2214       N  0.70817701  0.74610408  0.50969379    -0.57300
C2215       C  0.78098972  0.69156125  0.50403607     0.26900
C2216       C  0.73384747  0.68747892  0.50625653     0.26900
C2217       C  0.77067855  0.81187764  0.49708558     0.26900
C2218       C  0.72347618  0.80747353  0.49823260     0.26900
C2219       C  0.81554546  0.73212840  0.51272591     0.35500
C2220       C  0.81155834  0.77924377  0.51020975     0.35500
C2221       C  0.69416364  0.72174164  0.51834977     0.35500
C2222       C  0.69002087  0.76865566  0.51486709     0.35500
C2223       C  0.77408282  0.66373462  0.49442316    -0.22000
C2224       C  0.74437585  0.66135219  0.49542006    -0.22000
C2225       C  0.75924308  0.83592086  0.48266014    -0.22000
C2226       C  0.72948162  0.83311093  0.48331111    -0.22000
C2227       C  0.84200113  0.74348141  0.52150719    -0.23000
C2228       C  0.83932266  0.77329070  0.52036278    -0.23000
C2229       C  0.66715418  0.72889417  0.52960777    -0.23000
C2230       C  0.66448220  0.75867234  0.52729592    -0.23000
C2231       C  0.80945926  0.70215230  0.50886818    -0.18400
C2232       C  0.70441652  0.69314326  0.51320885    -0.18400
C2233       C  0.69526854  0.79756797  0.50566208    -0.18400
C2234       C  0.80059408  0.80726999  0.50300845    -0.18400
H2235       H  0.78866999  0.64649222  0.48784373     0.14500
H2236       H  0.73205950  0.64223751  0.48941231     0.14500
H2237       H  0.77110192  0.85372101  0.47278217     0.14500
H2238       H  0.71404138  0.84838478  0.47405033     0.14500
H2239       H  0.86139051  0.73167575  0.52780113     0.12800
H2240       H  0.85612891  0.78870338  0.52600867     0.12800
H2241       H  0.65082163  0.71416212  0.53795878     0.12800
H2242       H  0.64569367  0.77143531  0.53351137     0.12800
H2243       H  0.75517865  0.72547348  0.52249483     0.26100
H2244       H  0.75078144  0.77685883  0.52050305     0.26100
C2245       C  0.82098661  0.83273310  0.50177915    -0.05300
C2246       C  0.81452975  0.85840353  0.01749006    -0.05300
C2247       C  0.83394977  0.88179411  0.01780055    -0.23400
C2248       C  0.86063099  0.87980731  0.00323303     0.18800
C2249       C  0.86744818  0.85421466  0.48734457     0.16000
C2250       C  0.84731640  0.83119884  0.48618353    -0.18500
C2251       C  0.89459834  0.85184264  0.47368683    -0.20300
C2252       C  0.91491014  0.87438314  0.47594119    -0.12800
C2253       C  0.90825065  0.90006000  0.49129498     0.03800
C2254       C  0.88084578  0.90272014  0.00464666    -0.25000
H2255       H  0.79454485  0.86013479  0.02978916     0.08900
H2256       H  0.82839379  0.90117894  0.03005363     0.12500
H2257       H  0.85245220  0.81173122  0.47385412     0.12400
H2258       H  0.90031289  0.83236369  0.46164881     0.12200
H2259       H  0.93580489  0.87184237  0.46541380     0.12700
H2260       H  0.87555691  0.92228672  0.01675551     0.14700
C2261       C  0.90350799  0.59675569  0.49484663    -0.05300
C2262       C  0.88992561  0.60191040  0.46793852    -0.05300
C2263       C  0.87000944  0.62478269  0.46483488    -0.23400
C2264       C  0.86296922  0.64233218  0.48882830     0.18800
C2265       C  0.87633061  0.63692574  0.01616204     0.16000
C2266       C  0.89702152  0.61455466  0.01881703    -0.18500
C2267       C  0.86846547  0.65368910  0.04041288    -0.20300
C2268       C  0.84689721  0.67502227  0.03788591    -0.12800
C2269       C  0.83364951  0.68067924  0.51083158     0.03800
C2270       C  0.84245647  0.66488260  0.48616535    -0.25000
H2271       H  0.89522912  0.58859585  0.44920105     0.08900
H2272       H  0.85995836  0.62859227  0.44378669     0.16500
H2273       H  0.90780121  0.61065909  0.03950834     0.12400
H2274       H  0.87841405  0.64975859  0.06148629     0.12200
H2275       H  0.84028072  0.68698441  0.05709890     0.12700
H2276       H  0.83240346  0.66939411  0.46523379     0.14700
C2277       C  0.60237670  0.90576312  0.50325676    -0.05300
C2278       C  0.62684555  0.91303240  0.01984737    -0.05300
C2279       C  0.64877456  0.89268077  0.02525165    -0.23400
C2280       C  0.64744013  0.86495432  0.01273658     0.18800
C2281       C  0.62351325  0.85756739  0.99486370     0.16000
C2282       C  0.60072079  0.87776049  0.49090512    -0.18500
C2283       C  0.62327844  0.83040800  0.48094118    -0.20300
C2284       C  0.64651230  0.81093947  0.48448361    -0.12800
C2285       C  0.67014504  0.81799421  0.50255626     0.03800
C2286       C  0.67016206  0.84491643  0.01699717    -0.25000
H2287       H  0.62907620  0.93463654  0.02873174     0.08900
H2288       H  0.66717508  0.89892801  0.03856594     0.12500
H2289       H  0.58210453  0.87198702  0.47767087     0.12400
H2290       H  0.60532163  0.82439801  0.46693912     0.12200
H2291       H  0.64616329  0.79035655  0.47297848     0.12700
H2292       H  0.68835525  0.85052355  0.03090163     0.14700
C2293       C  0.59732977  0.60095253  0.49772069    -0.05300
C2294       C  0.59187320  0.62632218  0.48132653    -0.05300
C2295       C  0.61216391  0.64888007  0.48039430    -0.23400
C2296       C  0.63798419  0.64683139  0.49647510     0.18800
C2297       C  0.64363350  0.62158183  0.01317099     0.16000
C2298       C  0.62350672  0.59855113  0.01327323    -0.18500
C2299       C  0.66905108  0.62007032  0.03002023    -0.20300
C2300       C  0.68850689  0.64344958  0.03035776    -0.12800
C2301       C  0.68329798  0.66844896  0.51346862     0.03800
C2302       C  0.65807245  0.66978441  0.49621427    -0.25000
H2303       H  0.57195639  0.62855881  0.46892089     0.08900
H2304       H  0.60747180  0.66810619  0.46740405     0.12500
H2305       H  0.62778609  0.57915790  0.02617972     0.12400
H2306       H  0.67368053  0.60099438  0.04324659     0.12200
H2307       H  0.70774362  0.64202447  0.04390097     0.12700
H2308       H  0.65401017  0.68886621  0.48277915     0.14700
C2309       C  0.90808732  0.00312903  0.39787652    -0.05300
C2310       C  0.91304343  0.52373012  0.37548657    -0.05300
C2311       C  0.89441285  0.52585388  0.35154675    -0.23400
C2312       C  0.87059942  0.50713324  0.34910740     0.18800
C2313       C  0.86555409  0.48603715  0.37115826     0.16000
C2314       C  0.88421743  0.98427930  0.39565629    -0.18500
C2315       C  0.84226810  0.96660321  0.36827099    -0.20300
C2316       C  0.82360714  0.96881587  0.34428395    -0.12800
C2317       C  0.82797028  0.99023489  0.32274126     0.03800
C2318       C  0.85164632  0.50930779  0.32511005    -0.25000
H2319       H  0.93144558  0.53834488  0.37671646     0.08900
H2320       H  0.89872712  0.54205880  0.33487462     0.12500
H2321       H  0.88046272  0.96815557  0.41256237     0.12400
H2322       H  0.83811624  0.95015660  0.38474166     0.12200
H2323       H  0.80522432  0.95421568  0.34281409     0.12700
H2324       H  0.85497692  0.52598790  0.30865484     0.14700
C2325       C  0.59706575  0.00920905  0.39929040    -0.05300
C2326       C  0.59182581  0.52791857  0.37539655    -0.05300
C2327       C  0.61146040  0.52931413  0.35232860    -0.23400
C2328       C  0.63629840  0.51163420  0.35248815     0.18800
C2329       C  0.64160561  0.49264524  0.37631216     0.16000
C2330       C  0.62223105  0.99194600  0.39991360    -0.18500
C2331       C  0.66610374  0.97429764  0.37619333    -0.20300
C2332       C  0.68510706  0.97478084  0.35252458    -0.12800
C2333       C  0.68018267  0.99382658  0.32898281     0.03800
C2334       C  0.65576106  0.51240828  0.32909410    -0.25000
H2335       H  0.57249527  0.54143308  0.37466842     0.08900
H2336       H  0.60701396  0.54387863  0.33420204     0.12500
H2337       H  0.62615244  0.97738842  0.41818665     0.12400
H2338       H  0.67043017  0.95956512  0.39420817     0.12200
H2339       H  0.70384678  0.96044903  0.35261106     0.12700
H2340       H  0.65207422  0.52729774  0.31103920     0.14700
C2341       C  0.60007858  0.99124245  0.09409306    -0.05300
C2342       C  0.62285726  0.97149891  0.08912170    -0.05300
C2343       C  0.64569813  0.96868543  0.10897120    -0.23400
C2344       C  0.64635066  0.98599240  0.13405221     0.18800
C2345       C  0.62330088  0.50570047  0.13928792     0.16000
C2346       C  0.60013256  0.50795371  0.11941706    -0.18500
C2347       C  0.62412588  0.52328159  0.16419010    -0.20300
C2348       C  0.64760518  0.52147238  0.18344054    -0.12800
C2349       C  0.67061180  0.00192000  0.17845169     0.03800
C2350       C  0.66981916  0.98418775  0.15357369    -0.25000
H2351       H  0.62291284  0.95822685  0.06981170     0.08900
H2352       H  0.66305356  0.95334350  0.10445974     0.12500
H2353       H  0.58269302  0.52340624  0.12324995     0.12400
H2354       H  0.60672753  0.53857664  0.16866593     0.12200
H2355       H  0.64787747  0.53533732  0.20250696     0.12700
H2356       H  0.68744271  0.96900312  0.14953798     0.14700
C2357       C  0.82187371  0.99560567  0.16873661    -0.05300
C2358       C  0.81581627  0.97775230  0.14462167    -0.05300
C2359       C  0.83490648  0.97628995  0.12093193    -0.23400
C2360       C  0.86078027  0.99234777  0.12094132     0.18800
C2361       C  0.86734832  0.51039708  0.14521844     0.16000
C2362       C  0.84779109  0.51216695  0.16882026    -0.18500
C2363       C  0.89368995  0.52566512  0.14561989    -0.20300
C2364       C  0.91328502  0.52318541  0.12241140    -0.12800
C2365       C  0.90687943  0.00569624  0.09797228     0.03800
C2366       C  0.88029650  0.99064781  0.09727456    -0.25000
H2367       H  0.79614266  0.96488603  0.14414321     0.08900
H2368       H  0.82951076  0.96239954  0.10266494     0.12500
H2369       H  0.85279189  0.52595644  0.18729944     0.12400
H2370       H  0.89933184  0.53923984  0.16405995     0.12200
H2371       H  0.93359441  0.53499107  0.12351116     0.12700
H2372       H  0.87521203  0.97696893  0.07874293     0.14700
C2373       C  0.49434158  0.67078027  0.31725235    -0.05300
C2374       C  0.51145327  0.64649391  0.30976361    -0.05300
C2375       C  0.51451135  0.62297188  0.32898194    -0.23400
C2376       C  0.50088827  0.62351869  0.35629084     0.18800
C2377       C  0.98355698  0.64770569  0.36383314     0.16000
C2378       C  0.98015085  0.67095752  0.34411114    -0.18500
C2379       C  0.97042712  0.64868989  0.39133177    -0.20300
C2380       C  0.97488283  0.62611687  0.41135228    -0.12800
C2381       C  0.49216255  0.60187121  0.40413825     0.03800
C2382       C  0.50475315  0.60047608  0.37626543    -0.25000
H2383       H  0.52265450  0.64588385  0.28902063     0.08900
H2384       H  0.52791654  0.60459136  0.32268284     0.12500
H2385       H  0.96682662  0.68958452  0.34991231     0.12400
H2386       H  0.95706632  0.66713594  0.39753813     0.12200
H2387       H  0.96463068  0.62753903  0.43254589     0.12700
H2388       H  0.51816090  0.58190887  0.37046317     0.14700
C2389       C  0.49778041  0.82209878  0.32823858    -0.05300
C2390       C  0.97943626  0.81610072  0.35350982    -0.05300
C2391       C  0.97878598  0.83522040  0.37715404    -0.23400
C2392       C  0.99477234  0.86115419  0.37636153     0.18800
C2393       C  0.51235656  0.86784814  0.35097895     0.16000
C2394       C  0.51383494  0.84814217  0.32762130    -0.18500
C2395       C  0.52684506  0.89464701  0.34961796    -0.20300
C2396       C  0.52447709  0.91452482  0.37251339    -0.12800
C2397       C  0.50822956  0.90767518  0.39751522     0.03800
C2398       C  0.99348236  0.88096217  0.39962975    -0.25000
H2399       H  0.96633365  0.79654584  0.35431762     0.08900
H2400       H  0.96537754  0.82996711  0.39583061     0.12500
H2401       H  0.52704197  0.85324938  0.30874587     0.12400
H2402       H  0.53964575  0.90042348  0.33066814     0.12200
H2403       H  0.53565025  0.93521397  0.37082864     0.12700
H2404       H  0.98037381  0.87600510  0.41862576     0.14700
C2405       C  0.50709511  0.90374340  0.09510604    -0.05300
C2406       C  0.52992769  0.90660919  0.11517529    -0.05300
C2407       C  0.53141578  0.88876327  0.13979260    -0.23400
C2408       C  0.50978977  0.86802322  0.14497907     0.18800
C2409       C  0.98590597  0.86634515  0.12597843     0.16000
C2410       C  0.98487800  0.88408017  0.10091596    -0.18500
C2411       C  0.96349840  0.84664107  0.13207838    -0.20300
C2412       C  0.96526056  0.82846726  0.15652473    -0.12800
C2413       C  0.48992055  0.82875163  0.17439568     0.03800
C2414       C  0.51120181  0.84998264  0.16971488    -0.25000
H2415       H  0.54650816  0.92300982  0.11189041     0.08900
H2416       H  0.54930273  0.89139610  0.15491314     0.12500
H2417       H  0.96639161  0.88309640  0.08628951     0.12400
H2418       H  0.94495849  0.84484501  0.11763915     0.12200
H2419       H  0.94830013  0.81260088  0.16035293     0.12700
H2420       H  0.52931354  0.85166014  0.18473666     0.14700
C2421       C  0.48659404  0.68020937  0.16798971    -0.05300
C2422       C  0.97104000  0.68682386  0.14256862    -0.05300
C2423       C  0.97087243  0.66717119  0.11932328    -0.23400
C2424       C  0.98714308  0.64130633  0.12087556     0.18800
C2425       C  0.50256554  0.63426798  0.14660183     0.16000
C2426       C  0.50281354  0.65425566  0.16971962    -0.18500
C2427       C  0.51819719  0.60807546  0.14856382    -0.20300
C2428       C  0.51776314  0.58824013  0.12552219    -0.12800
C2429       C  0.50219181  0.59446587  0.09983247     0.03800
C2430       C  0.98703081  0.62136029  0.09764866    -0.25000
H2431       H  0.95817888  0.70658199  0.14100802     0.08900
H2432       H  0.95792968  0.67214376  0.10019245     0.12500
H2433       H  0.51569399  0.64975210  0.18903098     0.12400
H2434       H  0.53063080  0.60285020  0.16797341     0.12200
H2435       H  0.52997255  0.56811137  0.12763541     0.12700
H2436       H  0.97439868  0.62603855  0.07821844     0.14700
N2437       N  0.49059315  0.75384003  0.70351222    -0.36700
N2438       N  0.49736644  0.79672923  0.74988864    -0.57300
N2439       N  0.49345482  0.74934176  0.79177342    -0.36700
N2440       N  0.48938924  0.70721831  0.74489215    -0.57300
C2441       C  0.49942305  0.77781058  0.68897363     0.26900
C2442       C  0.49627700  0.73065392  0.68625710     0.26900
C2443       C  0.50318700  0.77153887  0.80848815     0.26900
C2444       C  0.50005869  0.72412609  0.80580283     0.26900
C2445       C  0.49046515  0.81442052  0.72726466     0.35500
C2446       C  0.49237864  0.81214243  0.77445731     0.35500
C2447       C  0.48085908  0.69269930  0.72082576     0.35500
C2448       C  0.48245645  0.69025905  0.76787203     0.35500
C2449       C  0.51123378  0.76988004  0.66235532    -0.22000
C2450       C  0.50945058  0.73999360  0.66072500    -0.22000
C2451       C  0.51637779  0.76031913  0.83331886    -0.22000
C2452       C  0.51448887  0.73039973  0.83158518    -0.22000
C2453       C  0.48135096  0.84133744  0.73736432    -0.23000
C2454       C  0.48240144  0.83986328  0.76733628    -0.23000
C2455       C  0.46791774  0.66656500  0.72851132    -0.23000
C2456       C  0.46895863  0.66499523  0.75843800    -0.23000
C2457       C  0.49362309  0.80663585  0.69770234    -0.18400
C2458       C  0.48753764  0.70175794  0.69222342    -0.18400
C2459       C  0.49160453  0.69587082  0.79665587    -0.18400
C2460       C  0.49801246  0.80154752  0.80297674    -0.18400
H2461       H  0.51959893  0.78423301  0.64559396     0.14500
H2462       H  0.51636211  0.72676536  0.64250090     0.14500
H2463       H  0.52606827  0.77245118  0.85101861     0.14500
H2464       H  0.52250680  0.71507995  0.84770117     0.14500
H2465       H  0.47457085  0.85998620  0.72450582     0.12800
H2466       H  0.47632179  0.85718869  0.78208876     0.12800
H2467       H  0.45933618  0.65007129  0.71408043     0.12800
H2468       H  0.46140002  0.64699273  0.77168756     0.12800
H2469       H  0.47770814  0.75386905  0.72215983     0.26100
H2470       H  0.47995695  0.75144759  0.77366181     0.26100
O2471       O  0.49993406  0.58270342  0.54924756    -0.80200
O2472       O  0.50368152  0.91654213  0.54476711    -0.81800
O2473       O  0.95554151  0.00297681  0.58153980    -0.78800
O2474       O  0.55059474  0.99663705  0.58051707    -0.77200
O2475       O  0.58552944  0.99681229  0.54503939    -0.79000
O2476       O  0.91932181  0.00087038  0.54733539    -0.79900
O2477       O  0.50414306  0.95206842  0.57978775    -0.81200
O2478       O  0.50367078  0.54596027  0.58286884    -0.81500
Eu2479     Eu  0.50257755  0.99971609  0.55663776     2.39200
O2480       O  0.53212199  0.97165383  0.52611168    -0.89000
O2481       O  0.97175403  0.52894436  0.52827420    -0.92600
C2482       C  0.50182454  0.57309851  0.57573853     1.02100
C2483       C  0.50457797  0.92530470  0.57154217     1.01900
C2484       C  0.92850154  0.00292408  0.57400455     1.01800
C2485       C  0.57724414  0.99521330  0.57184513     0.99700
H2486       H  0.96180063  0.95731451  0.53945372     0.29400
O2487       O  0.97354300  0.96990642  0.52732934    -1.01400
H2488       H  0.54395770  0.54260542  0.54105123     0.29500
O2489       O  0.53195392  0.53084976  0.52852061    -1.03900
O2490       O  0.50471343  0.91927248  0.94782535    -0.81200
O2491       O  0.49717289  0.58572748  0.95290671    -0.80700
O2492       O  0.92061487  0.95024294  0.99623009    -0.79100
O2493       O  0.58606659  0.95460288  0.99928904    -0.82500
O2494       O  0.58464131  0.55076838  0.99936777    -0.80300
O2495       O  0.91795307  0.54724979  0.99605166    -0.79000
O2496       O  0.95596755  0.00259834  0.91489108    -0.80500
O2497       O  0.54868421  0.00792194  0.91507051    -0.82400
O2498       O  0.91968693  0.99901778  0.94882170    -0.79200
O2499       O  0.58466297  0.00404919  0.94931008    -0.81900
O2500       O  0.95717206  0.91638574  0.99342327    -0.77600
O2501       O  0.95233728  0.58318934  0.00002712    -0.77600
O2502       O  0.54841717  0.58512293  0.99805161    -0.77300
O2503       O  0.55211300  0.91823000  0.99817866    -0.80800
O2504       O  0.50529070  0.95630528  0.91423006    -0.80200
O2505       O  0.49908251  0.55184139  0.91644324    -0.78500
Eu2506     Eu  0.50346522  0.94146182  0.99666388     2.39800
Eu2507     Eu  0.50099681  0.56044725  0.00008620     2.39600
Eu2508     Eu  0.94265463  0.99931365  0.99824760     2.38400
Eu2509     Eu  0.56144564  0.00222446  0.99771648     2.39900
Eu2510     Eu  0.50227048  0.00318955  0.93973983     2.39800
O2511       O  0.53133273  0.53283285  0.96938829    -0.92900
O2512       O  0.97383747  0.97176174  0.96825793    -0.91800
C2513       C  0.50575078  0.92906937  0.92140448     1.02200
C2514       C  0.49669718  0.57829391  0.92578167     1.01000
C2515       C  0.93005712  0.92374921  0.99386769     1.00300
C2516       C  0.57859339  0.92747196  0.99967291     1.02400
C2517       C  0.57544207  0.57742049  0.99846668     1.01300
C2518       C  0.92596277  0.57421477  0.99737692     1.00100
C2519       C  0.92906515  0.00107832  0.92223358     1.00200
C2520       C  0.57551924  0.00696176  0.92281404     1.02800
H2521       H  0.95952418  0.54254426  0.95814868     0.30200
O2522       O  0.97191217  0.53056825  0.97024483    -1.05100
H2523       H  0.54509352  0.96112646  0.95525495     0.32200
O2524       O  0.53261772  0.97253167  0.96771468    -1.07700
N2525       N  0.74835579  0.99723812  0.70476772    -0.36700
N2526       N  0.79584032  0.99783547  0.74698632    -0.57300
N2527       N  0.75303904  0.99519162  0.79330635    -0.36700
N2528       N  0.70605544  0.99790193  0.75169025    -0.57300
C2529       C  0.77127882  0.00421392  0.68764883     0.26900
C2530       C  0.72386056  0.00514169  0.69027752     0.26900
C2531       C  0.77740351  0.00176121  0.80825823     0.26900
C2532       C  0.73032218  0.00185093  0.81067568     0.26900
C2533       C  0.81069672  0.99123016  0.72241812     0.35500
C2534       C  0.81303575  0.99011027  0.76974642     0.35500
C2535       C  0.68845564  0.99235114  0.72885971     0.35500
C2536       C  0.69115770  0.99027741  0.77585843     0.35500
C2537       C  0.76120472  0.01688221  0.66203390    -0.22000
C2538       C  0.73131799  0.01749824  0.66370865    -0.22000
C2539       C  0.77012293  0.01319191  0.83525184    -0.22000
C2540       C  0.74032010  0.01333037  0.83674930    -0.22000
C2541       C  0.83748115  0.97932158  0.72966802    -0.23000
C2542       C  0.83898139  0.97869875  0.75966168    -0.23000
C2543       C  0.66226441  0.98107053  0.73853073    -0.23000
C2544       C  0.66402028  0.97966777  0.76839044    -0.23000
C2545       C  0.80079150  0.99724395  0.69368486    -0.18400
C2546       C  0.69505362  0.99955824  0.69969252    -0.18400
C2547       C  0.70110985  0.99510755  0.80451139    -0.18400
C2548       C  0.80579039  0.99437763  0.79941163    -0.18400
H2549       H  0.77404208  0.02459860  0.64384999     0.14500
H2550       H  0.71675065  0.02574663  0.64706446     0.14500
H2551       H  0.78478876  0.01997119  0.85238012     0.14500
H2552       H  0.72751469  0.02034878  0.85522707     0.14500
H2553       H  0.85420853  0.97181842  0.71492568     0.12800
H2554       H  0.85704785  0.97072562  0.77255066     0.12800
H2555       H  0.64377035  0.97471183  0.72546187     0.12800
H2556       H  0.64714004  0.97207358  0.78291792     0.12800
H2557       H  0.74929104  0.98461051  0.72362750     0.26100
H2558       H  0.75210507  0.98293520  0.77427627     0.26100
N2559       N  0.75629475  0.70585513  0.01123203    -0.36700
N2560       N  0.79703139  0.75409269  0.00585055    -0.57300
N2561       N  0.74868663  0.79464494  0.00652923    -0.36700
N2562       N  0.70815759  0.74612101  0.00963026    -0.57300
C2563       C  0.78101572  0.69161015  0.00402428     0.26900
C2564       C  0.73386602  0.68751746  0.00613309     0.26900
C2565       C  0.77064233  0.81195264  0.99726462     0.26900
C2566       C  0.72343951  0.80752378  0.99832378     0.26900
C2567       C  0.81553542  0.73218768  0.01284089     0.35500
C2568       C  0.81151369  0.77930577  0.01039949     0.35500
C2569       C  0.69414369  0.72173673  0.01822002     0.35500
C2570       C  0.68997926  0.76865103  0.01481522     0.35500
C2571       C  0.77412689  0.66379321  0.99436185    -0.22000
C2572       C  0.74441988  0.66141048  0.99528041    -0.22000
C2573       C  0.75921841  0.83602051  0.98287060    -0.22000
C2574       C  0.72945691  0.83319568  0.98346757    -0.22000
C2575       C  0.84197723  0.74355249  0.02165591    -0.23000
C2576       C  0.83927310  0.77335855  0.02056555    -0.23000
C2577       C  0.66711271  0.72885340  0.02944947    -0.23000
C2578       C  0.66442588  0.75863204  0.02718404    -0.23000
C2579       C  0.80947768  0.70220917  0.00892138    -0.18400
C2580       C  0.70442135  0.69315484  0.01304678    -0.18400
C2581       C  0.69522391  0.79758109  0.00567262    -0.18400
C2582       C  0.80055283  0.80733538  0.00320740    -0.18400
H2583       H  0.78871340  0.64654445  0.98780560     0.14500
H2584       H  0.73211960  0.64230205  0.98922020     0.14500
H2585       H  0.77108395  0.85384401  0.97304341     0.14500
H2586       H  0.71402426  0.84847945  0.97421027     0.14500
H2587       H  0.86138384  0.73176561  0.02792601     0.12800
H2588       H  0.85606617  0.78877485  0.02624155     0.12800
H2589       H  0.65077667  0.71409895  0.03775345     0.12800
H2590       H  0.64562031  0.77137289  0.03339312     0.12800
H2591       H  0.75515269  0.72548914  0.02247671     0.26100
H2592       H  0.75072285  0.77687516  0.02057526     0.26100
C2593       C  0.82096239  0.83278425  0.00197936    -0.05300
C2594       C  0.81451802  0.85835366  0.51727422    -0.05300
C2595       C  0.83391040  0.88176611  0.51758537    -0.23400
C2596       C  0.86060193  0.87980202  0.50303590     0.18800
C2597       C  0.86744249  0.85421654  0.98753350     0.16000
C2598       C  0.84728410  0.83122632  0.98637276    -0.18500
C2599       C  0.89458217  0.85181687  0.97385955    -0.20300
C2600       C  0.91491227  0.87434252  0.97608856    -0.12800
C2601       C  0.90828138  0.90003075  0.99143415     0.03800
C2602       C  0.88079739  0.90273056  0.50447167    -0.25000
H2603       H  0.79452568  0.86006897  0.52956327     0.08900
H2604       H  0.82832744  0.90114828  0.52983037     0.12500
H2605       H  0.85239292  0.81175758  0.97403392     0.12400
H2606       H  0.90027046  0.83233154  0.96181953     0.12200
H2607       H  0.93579389  0.87178611  0.96553873     0.12700
H2608       H  0.87548386  0.92228940  0.51658215     0.14700
C2609       C  0.90349189  0.59677176  0.99489880    -0.05300
C2610       C  0.88970173  0.60174323  0.96806368    -0.05300
C2611       C  0.86977766  0.62460696  0.96495521    -0.23400
C2612       C  0.86291429  0.64231178  0.98888537     0.18800
C2613       C  0.87621049  0.63678835  0.51616171     0.16000
C2614       C  0.89686777  0.61438699  0.51882903    -0.18500
C2615       C  0.86821906  0.65343789  0.54044997    -0.20300
C2616       C  0.84670584  0.67482336  0.53789755    -0.12800
C2617       C  0.83369350  0.68075229  0.01086246     0.03800
C2618       C  0.84239883  0.66485759  0.98622148    -0.25000
H2619       H  0.89485920  0.58830074  0.94937689     0.08900
H2620       H  0.85957603  0.62828385  0.94395699     0.16500
H2621       H  0.90750504  0.61036409  0.53957060     0.12400
H2622       H  0.87804098  0.64939282  0.56156190     0.12200
H2623       H  0.84000669  0.68671894  0.55712318     0.12700
H2624       H  0.83225352  0.66927871  0.96531583     0.14700
C2625       C  0.60225687  0.90569840  0.00329663    -0.05300
C2626       C  0.62700005  0.91311217  0.51975077    -0.05300
C2627       C  0.64893604  0.89276010  0.52513695    -0.23400
C2628       C  0.64756278  0.86501100  0.51267267     0.18800
C2629       C  0.62359829  0.85760853  0.49485816     0.16000
C2630       C  0.60063020  0.87771226  0.99090363    -0.18500
C2631       C  0.62324386  0.83039578  0.98088950    -0.20300
C2632       C  0.64649423  0.81094628  0.98442759    -0.12800
C2633       C  0.67008880  0.81798842  0.00255623     0.03800
C2634       C  0.67027358  0.84495805  0.51693443    -0.25000
H2635       H  0.62924820  0.93472431  0.52861417     0.08900
H2636       H  0.66736355  0.89901853  0.53840829     0.12500
H2637       H  0.58204138  0.87195277  0.97762422     0.12400
H2638       H  0.60531771  0.82439723  0.96684279     0.12200
H2639       H  0.64618735  0.79038778  0.97287754     0.12700
H2640       H  0.68849733  0.85057714  0.53079349     0.14700
C2641       C  0.59732198  0.60097862  0.99759846    -0.05300
C2642       C  0.59184301  0.62635956  0.98122923    -0.05300
C2643       C  0.61214343  0.64890807  0.98026780    -0.23400
C2644       C  0.63799316  0.64683913  0.99629904     0.18800
C2645       C  0.64360386  0.62158705  0.51337368     0.16000
C2646       C  0.62348383  0.59854706  0.51345290    -0.18500
C2647       C  0.66899939  0.62009479  0.53026022    -0.20300
C2648       C  0.68846147  0.64347142  0.53059163    -0.12800
C2649       C  0.68332267  0.66844359  0.01326530     0.03800
C2650       C  0.65808473  0.66978891  0.99602829    -0.25000
H2651       H  0.57190202  0.62861219  0.96886562     0.08900
H2652       H  0.60743379  0.66814470  0.96729936     0.12500
H2653       H  0.62774516  0.57916304  0.52637910     0.12400
H2654       H  0.67361416  0.60103008  0.54350789     0.12200
H2655       H  0.70769038  0.64205375  0.54414685     0.12700
H2656       H  0.65400631  0.68888273  0.98261512     0.14700
C2657       C  0.90807442  0.00308709  0.89787776    -0.05300
C2658       C  0.91309353  0.52372561  0.87546895    -0.05300
C2659       C  0.89446191  0.52586308  0.85153130    -0.23400
C2660       C  0.87060184  0.50719827  0.84912391     0.18800
C2661       C  0.86551030  0.48614488  0.87120519     0.16000
C2662       C  0.88425127  0.98418114  0.89562355    -0.18500
C2663       C  0.84235197  0.96644254  0.86819855    -0.20300
C2664       C  0.82368728  0.96865027  0.84421329    -0.12800
C2665       C  0.82800477  0.99011302  0.82270575     0.03800
C2666       C  0.85165057  0.50938409  0.82512587    -0.25000
H2667       H  0.93152990  0.53829884  0.87667507     0.08900
H2668       H  0.89881158  0.54203433  0.83483598     0.12500
H2669       H  0.88053137  0.96802372  0.91250542     0.12400
H2670       H  0.83823440  0.94996241  0.88464446     0.12200
H2671       H  0.80533327  0.95401584  0.84272190     0.12700
H2672       H  0.85502184  0.52602905  0.80864370     0.14700
C2673       C  0.59706174  0.00918461  0.89934053    -0.05300
C2674       C  0.59184061  0.52795936  0.87536079    -0.05300
C2675       C  0.61147058  0.52934675  0.85228858    -0.23400
C2676       C  0.63629599  0.51164905  0.85243794     0.18800
C2677       C  0.64159607  0.49265077  0.87625569     0.16000
C2678       C  0.62224223  0.99194318  0.89997445    -0.18500
C2679       C  0.66612959  0.97431636  0.87626219    -0.20300
C2680       C  0.68512925  0.97479834  0.85258979    -0.12800
C2681       C  0.68019791  0.99383614  0.82904174     0.03800
C2682       C  0.65575542  0.51241751  0.82904211    -0.25000
H2683       H  0.57251854  0.54148661  0.87464127     0.08900
H2684       H  0.60703061  0.54391936  0.83416692     0.12500
H2685       H  0.62617173  0.97739419  0.91825255     0.12400
H2686       H  0.67046343  0.95959035  0.89428063     0.12200
H2687       H  0.70387163  0.96047012  0.85267797     0.12700
H2688       H  0.65207525  0.52731232  0.81099024     0.14700
C2689       C  0.60015213  0.99132310  0.59403581    -0.05300
C2690       C  0.62300463  0.97167750  0.58901166    -0.05300
C2691       C  0.64583206  0.96886454  0.60887722    -0.23400
C2692       C  0.64640357  0.98608540  0.63402027     0.18800
C2693       C  0.62331870  0.50570427  0.63927395     0.16000
C2694       C  0.60014509  0.50797364  0.61940991    -0.18500
C2695       C  0.62422475  0.52336871  0.66411471    -0.20300
C2696       C  0.64770957  0.52153698  0.68335731    -0.12800
C2697       C  0.67057895  0.00194988  0.67849157     0.03800
C2698       C  0.66985482  0.98428477  0.65356230    -0.25000
H2699       H  0.62312961  0.95848206  0.56964742     0.08900
H2700       H  0.66324100  0.95359487  0.60432951     0.12500
H2701       H  0.58277017  0.52351193  0.62319283     0.12400
H2702       H  0.60688351  0.53874079  0.66855091     0.12200
H2703       H  0.64804169  0.53545785  0.70238186     0.12700
H2704       H  0.68752309  0.96916061  0.64949749     0.14700
C2705       C  0.82182304  0.99574028  0.66872154    -0.05300
C2706       C  0.81574350  0.97793077  0.64457994    -0.05300
C2707       C  0.83482428  0.97648981  0.62088276    -0.23400
C2708       C  0.86071284  0.99252200  0.62091153     0.18800
C2709       C  0.86739406  0.51024307  0.64522514     0.16000
C2710       C  0.84783319  0.51203260  0.66882125    -0.18500
C2711       C  0.89371985  0.52553810  0.64560749    -0.20300
C2712       C  0.91330974  0.52306205  0.62239540    -0.12800
C2713       C  0.90683324  0.00582781  0.59796401     0.03800
C2714       C  0.88022904  0.99082087  0.59724648    -0.25000
H2715       H  0.79606175  0.96507758  0.64408855     0.08900
H2716       H  0.82941343  0.96262897  0.60259781     0.12500
H2717       H  0.85282016  0.52585647  0.68727838     0.12400
H2718       H  0.89934958  0.53913898  0.66403188     0.12200
H2719       H  0.93360360  0.53489620  0.62347672     0.12700
H2720       H  0.87513081  0.97716310  0.57870316     0.14700
C2721       C  0.49430947  0.67078274  0.81724005    -0.05300
C2722       C  0.51139595  0.64648281  0.80973386    -0.05300
C2723       C  0.51444439  0.62295068  0.82894164    -0.23400
C2724       C  0.50084114  0.62350037  0.85626024     0.18800
C2725       C  0.98356094  0.64771004  0.86383620     0.16000
C2726       C  0.98016444  0.67096629  0.84411775    -0.18500
C2727       C  0.97045957  0.64871086  0.89134758    -0.20300
C2728       C  0.97491203  0.62613552  0.91136616    -0.12800
C2729       C  0.49213607  0.60184835  0.90411023     0.03800
C2730       C  0.50470191  0.60044861  0.87622613    -0.25000
H2731       H  0.52258487  0.64586867  0.78898433     0.08900
H2732       H  0.52782897  0.60456040  0.82262719     0.12500
H2733       H  0.96686554  0.68960782  0.84993059     0.12400
H2734       H  0.95712651  0.66717286  0.89756623     0.12200
H2735       H  0.96468481  0.62757353  0.93257067     0.12700
H2736       H  0.51809101  0.58187251  0.87040926     0.14700
C2737       C  0.49772914  0.82212609  0.82821893    -0.05300
C2738       C  0.97946887  0.81609043  0.85348574    -0.05300
C2739       C  0.97882075  0.83521017  0.87712957    -0.23400
C2740       C  0.99479518  0.86115092  0.87632913     0.18800
C2741       C  0.51226373  0.86789965  0.85094290     0.16000
C2742       C  0.51375530  0.84818839  0.82758952    -0.18500
C2743       C  0.52671759  0.89471685  0.84956839    -0.20300
C2744       C  0.52434930  0.91459105  0.87246737    -0.12800
C2745       C  0.50813641  0.90772061  0.89748724     0.03800
C2746       C  0.99350857  0.88095673  0.89959868    -0.25000
H2747       H  0.96637549  0.79652960  0.85430046     0.08900
H2748       H  0.96542382  0.82995083  0.89581277     0.12500
H2749       H  0.52695175  0.85330547  0.80870938     0.12400
H2750       H  0.53949570  0.90050797  0.83060759     0.12200
H2751       H  0.53550043  0.93529146  0.87077268     0.12700
H2752       H  0.98041283  0.87599213  0.91860172     0.14700
C2753       C  0.50716231  0.90376006  0.59510738    -0.05300
C2754       C  0.52999473  0.90661388  0.61517760    -0.05300
C2755       C  0.53147807  0.88875814  0.63978759    -0.23400
C2756       C  0.50984673  0.86802178  0.64496551     0.18800
C2757       C  0.98589434  0.86627220  0.62592643     0.16000
C2758       C  0.98488036  0.88400172  0.60085962    -0.18500
C2759       C  0.96356055  0.84645755  0.63193598    -0.20300
C2760       C  0.96531279  0.82829539  0.65639084    -0.12800
C2761       C  0.48996481  0.82875029  0.67437108     0.03800
C2762       C  0.51125253  0.84997522  0.66969623    -0.25000
H2763       H  0.54657917  0.92301158  0.61189878     0.08900
H2764       H  0.54936509  0.89138115  0.65490984     0.12500
H2765       H  0.96646012  0.88292502  0.58615651     0.12400
H2766       H  0.94508871  0.84456851  0.61742156     0.12200
H2767       H  0.94841484  0.81234575  0.66015103     0.12700
H2768       H  0.52936281  0.85164543  0.68472062     0.14700
C2769       C  0.48662431  0.68022633  0.66797508    -0.05300
C2770       C  0.97109637  0.68680079  0.64254901    -0.05300
C2771       C  0.97093047  0.66714927  0.61930328    -0.23400
C2772       C  0.98716545  0.64126339  0.62087386     0.18800
C2773       C  0.50254355  0.63426292  0.64660464     0.16000
C2774       C  0.50280844  0.65425302  0.66971696    -0.18500
C2775       C  0.51813673  0.60804966  0.64858323    -0.20300
C2776       C  0.51769182  0.58821382  0.62554466    -0.12800
C2777       C  0.50214724  0.59445937  0.59984397     0.03800
C2778       C  0.98705559  0.62132037  0.59764454    -0.25000
H2779       H  0.95826166  0.70657494  0.64097293     0.08900
H2780       H  0.95801680  0.67213969  0.60015729     0.12500
H2781       H  0.51567311  0.64973440  0.68903552     0.12400
H2782       H  0.53055092  0.60281051  0.66800166     0.12200
H2783       H  0.52987529  0.56807033  0.62766781     0.12700
H2784       H  0.97445363  0.62601867  0.57819942     0.14700
loop_ 
_geom_bond_atom_site_label_1 
_geom_bond_atom_site_label_2 
_geom_bond_distance 
_geom_bond_site_symmetry_2 
_ccdc_geom_bond_type 
N1            C6   1.353       .  A
N1            C5   1.348       .  A
N1           H33   1.041       .  S
N2            C9   1.352       .  A
N2           C10   1.352       .  A
N3            C8   1.355   1_655  A
N3            C7   1.354   1_655  A
N3           H34   1.041       .  S
N4           C11   1.350       .  A
N4           C12   1.348       .  A
C5           C13   1.387   1_655  A
C5           C21   1.408       .  A
C6           C22   1.413       .  A
C6           C14   1.387   1_655  A
C7           C15   1.387       .  A
C7           C24   1.418   1_455  A
C8           C23   1.419   1_455  A
C8           C16   1.387       .  A
C9           C21   1.411       .  A
C9           C17   1.384       .  A
C10          C24   1.417       .  A
C10          C18   1.389       .  A
C11          C19   1.385       .  A
C11          C22   1.410       .  A
C12          C20   1.387       .  A
C12          C23   1.411       .  A
C13          C14   1.376       .  A
C13          H25   1.083       .  S
C14          H26   1.082       .  S
C15          C16   1.378       .  A
C15          H27   1.082       .  S
C16          H28   1.082       .  S
C17          C18   1.376       .  A
C17          H29   1.082       .  S
C18          H30   1.082       .  S
C19          C20   1.375       .  A
C19          H31   1.082       .  S
C20          H32   1.082       .  S
C21         C325   1.481       .  S
C22         C333   1.491       .  S
C23         C285   1.492       .  S
C24         C301   1.495       .  S
O35          C46   1.294   1_655  A
O35        Eu419   2.477   1_655  S
O36          C47   1.294       .  A
O36        Eu418   2.481   1_554  S
O37          C48   1.291       .  A
O37       Eu1435   2.457       .  S
O38          C49   1.293       .  A
O38         Eu43   2.476       .  S
O39          C49   1.289       .  A
O39        Eu421   2.444   1_554  S
O40          C48   1.298       .  A
O40        Eu420   2.496   1_554  S
O41          C47   1.286       .  A
O41         Eu43   2.431       .  S
O42          C46   1.289       .  A
O42        Eu739   2.445       .  S
Eu43       O1429   2.461   1_455  S
Eu43        O738   2.446       .  S
Eu43         O44   2.341       .  S
Eu43        O749   2.350       .  S
Eu43       O2133   2.346   1_455  S
Eu43       O1443   2.368   1_455  S
O44        Eu421   2.348   1_554  S
O44        Eu418   2.345   1_554  S
O45       Eu2131   2.344   1_545  S
O45       Eu1811   2.349       .  S
O45       Eu1116   2.364   1_544  S
C46         C341   1.480       .  S
C47         C317   1.466       .  S
C48         C277   1.490       .  S
C49         C253   1.475       .  S
H50          O51   0.967       .  S
O51       Eu1435   2.368       .  S
O51        Eu420   2.367   1_554  S
O51       Eu1810   2.371   1_554  S
H52          O53   0.964       .  S
O53        Eu739   2.351       .  S
O53        Eu419   2.355       .  S
O53       Eu1117   2.361   1_554  S
O54          C77   1.292       .  A
O54         Eu70   2.462       .  S
O55          C78   1.292       .  A
O55         Eu71   2.459   1_655  S
O56          C79   1.295       .  A
O56         Eu72   2.478       .  S
O57          C80   1.292       .  A
O57         Eu73   2.455       .  S
O58          C81   1.293       .  A
O58        Eu769   2.469       .  S
O59          C82   1.294       .  A
O59        Eu768   2.478   1_545  S
O60          C83   1.286       .  A
O60       Eu1466   2.428       .  S
O61          C84   1.286       .  A
O61         Eu74   2.432       .  S
O62          C83   1.297       .  A
O62         Eu72   2.498       .  S
O63          C84   1.292       .  A
O63         Eu73   2.468       .  S
O64          C79   1.292       .  A
O64       Eu1462   2.459       .  S
O65          C82   1.289       .  A
O65       Eu1463   2.450       .  S
O66          C81   1.293       .  A
O66         Eu71   2.463       .  S
O67          C80   1.295       .  A
O67         Eu70   2.482       .  S
O68          C77   1.291       .  A
O68         Eu74   2.453       .  S
O69          C78   1.292       .  A
O69        Eu770   2.468   1_655  S
Eu70        O384   2.481       .  S
Eu70       O1456   2.465   1_455  S
Eu70         O88   2.368       .  S
Eu70        O392   2.345       .  S
Eu70       O1791   2.368   1_455  S
Eu70       O1468   2.357   1_455  S
Eu71        O383   2.477   1_455  S
Eu71       O1457   2.450   1_455  S
Eu71         O75   2.356       .  S
Eu71       O1785   2.350   1_455  S
Eu71        O401   2.355       .  S
Eu71       O1478   2.357   1_455  S
Eu72        O388   2.496       .  S
Eu72        O755   2.477       .  S
Eu72         O76   2.357       .  S
Eu72       O1089   2.364       .  S
Eu72        O399   2.367       .  S
Eu72        O782   2.355       .  S
Eu73        O387   2.444       .  S
Eu73        O754   2.470       .  S
Eu73         O88   2.352       .  S
Eu73        O392   2.348       .  S
Eu73       O1097   2.361       .  S
Eu73        O771   2.351       .  S
Eu74       O1452   2.429   1_455  S
Eu74        O765   2.467   1_455  S
Eu74         O88   2.353       .  S
Eu74        O771   2.346       .  S
Eu74       O2174   2.343   1_455  S
Eu74       O1468   2.355   1_455  S
O75        Eu769   2.350       .  S
O75        Eu770   2.346       .  S
O76       Eu1462   2.357       .  S
O76       Eu1466   2.353       .  S
C77         C309   1.475       .  S
C78         C293   1.480       .  S
C79         C165   1.485       .  S
C80         C189   1.485       .  S
C81         C205   1.480       .  S
C82         C173   1.467       .  S
C83         C221   1.478       .  S
C84         C237   1.470       .  S
H85          O86   0.965       .  S
O86       Eu1463   2.358       .  S
O86        Eu768   2.355   1_545  S
O86       Eu2162   2.342       .  S
H87          O88   0.965       .  S
N89          C94   1.356       .  A
N89          C93   1.354       .  A
N89         H121   1.041       .  S
N90          C97   1.354       .  A
N90          C98   1.354       .  A
N91          C96   1.351       .  A
N91          C95   1.349       .  A
N91         H122   1.041       .  S
N92          C99   1.348       .  A
N92         C100   1.350       .  A
C93         C101   1.388       .  A
C93         C109   1.421       .  A
C94         C110   1.418       .  A
C94         C102   1.386       .  A
C95         C103   1.387       .  A
C95         C112   1.410       .  A
C96         C111   1.410       .  A
C96         C104   1.387       .  A
C97         C109   1.419       .  A
C97         C105   1.387       .  A
C98         C112   1.415       .  A
C98         C106   1.384       .  A
C99         C107   1.387       .  A
C99         C110   1.410       .  A
C100        C108   1.385       .  A
C100        C111   1.409       .  A
C101        C102   1.379       .  A
C101        H113   1.082       .  S
C102        H114   1.082       .  S
C103        C104   1.375       .  A
C103        H115   1.083       .  S
C104        H116   1.082       .  S
C105        C106   1.378       .  A
C105        H117   1.082       .  S
C106        H118   1.082       .  S
C107        C108   1.374       .  A
C107        H119   1.082       .  S
C108        H120   1.082       .  S
C109        C269   1.502       .  S
C110        C261   1.490       .  S
C111        C245   1.484       .  S
C112        C229   1.489       .  S
N123        C128   1.355       .  A
N123        C127   1.353       .  A
N123        H155   1.041       .  S
N124        C131   1.352       .  A
N124        C132   1.353       .  A
N125        C130   1.354       .  A
N125        C129   1.354       .  A
N125        H156   1.041       .  S
N126        C133   1.351       .  A
N126        C134   1.350       .  A
C127        C135   1.388       .  A
C127        C143   1.416       .  A
C128        C144   1.417       .  A
C128        C136   1.386       .  A
C129        C137   1.386       .  A
C129        C146   1.418       .  A
C130        C145   1.418       .  A
C130        C138   1.387       .  A
C131        C143   1.414       .  A
C131        C139   1.386       .  A
C132        C146   1.417       .  A
C132        C140   1.387       .  A
C133        C141   1.386       .  A
C133        C144   1.413       .  A
C134        C142   1.386       .  A
C134        C145   1.412       .  A
C135        C136   1.375       .  A
C135        H147   1.081       .  S
C136        H148   1.082       .  S
C137        C138   1.378       .  A
C137        H149   1.082       .  S
C138        H150   1.082       .  S
C139        C140   1.374       .  A
C139        H151   1.082       .  S
C140        H152   1.082       .  S
C141        C142   1.375       .  A
C141        H153   1.082       .  S
C142        H154   1.082       .  S
C143        C181   1.486       .  S
C144        C213   1.495       .  S
C145        C197   1.493       .  S
C146        C157   1.499       .  S
C157        C162   1.410       .  A
C157        C506   1.406       .  A
C158        C159   1.398       .  A
C158        C505   1.406   1_554  A
C158        H167   1.083       .  S
C159        C160   1.402       .  A
C159        H168   1.083       .  S
C160        C166   1.407       .  A
C160        C509   1.414   1_554  A
C161        C163   1.403       .  A
C161        C162   1.408       .  A
C161        C508   1.414       .  A
C162        H169   1.084       .  S
C163        C164   1.400       .  A
C163        H170   1.084       .  S
C164        C165   1.408       .  A
C164        H171   1.083       .  S
C165        C514   1.406       .  A
C166        C513   1.406   1_554  A
C166        H172   1.084       .  S
C173        C174   1.402       .  A
C173        C526   1.402       .  A
C174        C175   1.398       .  A
C174        H183   1.084       .  S
C175        C176   1.403       .  A
C175        H184   1.084       .  S
C176        C182   1.404       .  A
C176        C525   1.416       .  A
C177        C179   1.402       .  A
C177        C178   1.404       .  A
C177        C524   1.416   1_554  A
C178        C521   1.401   1_554  A
C178        H185   1.085       .  S
C179        C180   1.397       .  A
C179        H186   1.084       .  S
C180        C529   1.403       .  A
C180        H187   1.083       .  S
C181        C182   1.405       .  A
C181        C528   1.403       .  A
C182        H188   1.084       .  S
C189        C194   1.407       .  A
C189        C538   1.406       .  A
C190        C191   1.395       .  A
C190        C537   1.406       .  A
C190        H199   1.079       .  S
C191        C192   1.399       .  A
C191        H200   1.084       .  S
C192        C198   1.404       .  A
C192        C193   1.415   1_554  A
C193        C543   1.403       .  A
C193        C542   1.410       .  A
C194        C541   1.410       .  A
C194        H201   1.084       .  S
C195        C196   1.400       .  A
C195        C541   1.403       .  A
C195        H202   1.083       .  S
C196        C197   1.406       .  A
C196        H203   1.083       .  S
C197        C546   1.404       .  A
C198        C545   1.404       .  A
C198        H204   1.084       .  S
C205        C206   1.405       .  A
C205        C558   1.407       .  A
C206        C207   1.397       .  A
C206        H215   1.083       .  S
C207        C208   1.402       .  A
C207        H216   1.084       .  S
C208        C214   1.404       .  A
C208        C557   1.414       .  A
C209        C211   1.403       .  A
C209        C210   1.407       .  A
C209        C556   1.414   1_554  A
C210        C553   1.407   1_554  A
C210        H217   1.084       .  S
C211        C212   1.400       .  A
C211        H218   1.083       .  S
C212        C561   1.406       .  A
C212        H219   1.083       .  S
C213        C214   1.406       .  A
C213        C560   1.406       .  A
C214        H220   1.084       .  S
C221        C226   1.404       .  A
C221        C918   1.407       .  A
C222        C223   1.395       .  A
C222        C917   1.406       .  A
C222        H231   1.084       .  S
C223        C224   1.399       .  A
C223        H232   1.084       .  S
C224        C230   1.406       .  A
C224        C225   1.417   1_545  A
C225        C923   1.402       .  A
C225        C922   1.410       .  A
C226        C921   1.409       .  A
C226        H233   1.084       .  S
C227        C228   1.398       .  A
C227        C921   1.402       .  A
C227        H234   1.083       .  S
C228        C229   1.406       .  A
C228        H235   1.083       .  S
C229        C926   1.402       .  A
C230        C925   1.402   1_545  A
C230        H236   1.084       .  S
C237        C242   1.402       .  A
C237        C934   1.405       .  A
C238        C239   1.394       .  A
C238        C933   1.405       .  A
C238        H247   1.084       .  S
C239        C240   1.400       .  A
C239        H248   1.084       .  S
C240        C246   1.400       .  A
C240        C241   1.416   1_545  A
C241        C939   1.401       .  A
C241        C938   1.402       .  A
C242        C937   1.402       .  A
C242        H249   1.084       .  S
C243        C244   1.396       .  A
C243        C937   1.401       .  A
C243        H250   1.084       .  S
C244        C245   1.405       .  A
C244        H251   1.083       .  S
C245        C942   1.402       .  A
C246        C941   1.402   1_545  A
C246        H252   1.085       .  S
C253        C254   1.404       .  A
C253        C954   1.402       .  A
C254        C255   1.397       .  A
C254        H263   1.077       .  S
C255        C256   1.401       .  A
C255        H264   1.084       .  S
C256        C262   1.405       .  A
C256        C953   1.416       .  A
C257        C259   1.400       .  A
C257        C258   1.405       .  A
C257        C952   1.416   1_545  A
C258        C949   1.401   1_545  A
C258        H265   1.084       .  S
C259        C260   1.396       .  A
C259        H266   1.084       .  S
C260        C957   1.405       .  A
C260        H267   1.083       .  S
C261        C262   1.404       .  A
C261        C956   1.405       .  A
C262        H268   1.084       .  S
C269        C270   1.407       .  A
C269        C970   1.410       .  A
C270        C271   1.399       .  A
C270        H279   1.083       .  S
C271        C272   1.402       .  A
C271        H280   1.083       .  S
C272        C278   1.411       .  A
C272        C969   1.415       .  A
C273        C275   1.403       .  A
C273        C274   1.411       .  A
C273        C968   1.415   1_545  A
C274        C965   1.410   1_545  A
C274        H281   1.084       .  S
C275        C276   1.401       .  A
C275        H282   1.084       .  S
C276        C973   1.409       .  A
C276        H283   1.083       .  S
C277        C278   1.407       .  A
C277        C972   1.409       .  A
C278        H284   1.084       .  S
C285        C286   1.407   1_655  A
C285       C1682   1.404       .  A
C286        C287   1.398       .  A
C286        H295   1.083       .  S
C287        C288   1.402       .  A
C287        H296   1.084       .  S
C288        C294   1.408       .  A
C288       C1681   1.415   1_455  A
C289        C291   1.400       .  A
C289        C290   1.405       .  A
C289       C1680   1.416       .  A
C290       C1677   1.404       .  A
C290        H297   1.084       .  S
C291        C292   1.397       .  A
C291        H298   1.084       .  S
C292       C1685   1.406       .  A
C292        H299   1.083       .  S
C293        C294   1.407   1_655  A
C293       C1684   1.406       .  A
C294        H300   1.084       .  S
C301        C306   1.407   1_655  A
C301       C1694   1.407       .  A
C302        C303   1.397       .  A
C302       C1693   1.407       .  A
C302        H311   1.083       .  S
C303        C304   1.401       .  A
C303        H312   1.084       .  S
C304        C310   1.406       .  A
C304       C1697   1.415       .  A
C305        C307   1.402       .  A
C305        C306   1.404       .  A
C305       C1696   1.415   1_455  A
C306        H313   1.084       .  S
C307        C308   1.397       .  A
C307        H314   1.084       .  S
C308        C309   1.405       .  A
C308        H315   1.083       .  S
C309       C1702   1.404   1_455  A
C310       C1701   1.405       .  A
C310        H316   1.085       .  S
C317        C318   1.403       .  A
C317       C1714   1.402   1_455  A
C318        C319   1.394       .  A
C318        H327   1.084       .  S
C319        C320   1.400       .  A
C319        H328   1.084       .  S
C320        C326   1.403       .  A
C320       C1713   1.418   1_455  A
C321        C323   1.401       .  A
C321        C322   1.406       .  A
C321       C1712   1.418       .  A
C322       C1709   1.402       .  A
C322        H329   1.084       .  S
C323        C324   1.397       .  A
C323        H330   1.084       .  S
C324       C1717   1.404       .  A
C324        H331   1.083       .  S
C325        C326   1.400   1_655  A
C325       C1716   1.404       .  A
C326        H332   1.084       .  S
C333        C338   1.405   1_655  A
C333       C1726   1.405       .  A
C334        C335   1.398       .  A
C334       C1725   1.405       .  A
C334        H343   1.083       .  S
C335        C336   1.402       .  A
C335        H344   1.083       .  S
C336        C342   1.406       .  A
C336       C1729   1.415       .  A
C337        C339   1.401       .  A
C337        C338   1.404       .  A
C337       C1728   1.415   1_455  A
C338        H345   1.084       .  S
C339        C340   1.397       .  A
C339        H346   1.084       .  S
C340        C341   1.407       .  A
C340        H347   1.083       .  S
C341       C1734   1.406   1_455  A
C342       C1733   1.405       .  A
C342        H348   1.084       .  S
N349        C354   1.353       .  A
N349        C353   1.349       .  A
N349        H381   1.041       .  S
N350        C357   1.352       .  A
N350        C358   1.352       .  A
N351        C356   1.355   1_655  A
N351        C355   1.354   1_655  A
N351        H382   1.041       .  S
N352        C359   1.350       .  A
N352        C360   1.348       .  A
C353        C361   1.387   1_655  A
C353        C369   1.408       .  A
C354        C370   1.413       .  A
C354        C362   1.387   1_655  A
C355        C363   1.387       .  A
C355        C372   1.418   1_455  A
C356        C371   1.419   1_455  A
C356        C364   1.387       .  A
C357        C369   1.411       .  A
C357        C365   1.384       .  A
C358        C372   1.417       .  A
C358        C366   1.389       .  A
C359        C367   1.385       .  A
C359        C370   1.410       .  A
C360        C368   1.387       .  A
C360        C371   1.411       .  A
C361        C362   1.376       .  A
C361        H373   1.083       .  S
C362        H374   1.082       .  S
C363        C364   1.378       .  A
C363        H375   1.082       .  S
C364        H376   1.082       .  S
C365        C366   1.376       .  A
C365        H377   1.082       .  S
C366        H378   1.082       .  S
C367        C368   1.375       .  A
C367        H379   1.082       .  S
C368        H380   1.082       .  S
C369        C673   1.481       .  S
C370        C681   1.491       .  S
C371        C633   1.492       .  S
C372        C649   1.495       .  S
O383        C394   1.294   1_655  A
O384        C395   1.294       .  A
O385        C396   1.291       .  A
O385      Eu1783   2.456       .  S
O386        C397   1.293       .  A
O386       Eu391   2.476       .  S
O387        C397   1.289       .  A
O388        C396   1.298       .  A
O389        C395   1.286       .  A
O389       Eu391   2.431       .  S
O390        C394   1.289       .  A
O390      Eu1087   2.445       .  S
Eu391      O1777   2.462   1_455  S
Eu391      O1086   2.446       .  S
Eu391      O1097   2.351       .  S
Eu391      O2481   2.347   1_455  S
Eu391       O392   2.341       .  S
Eu391      O1791   2.368   1_455  S
O393      Eu2479   2.344   1_545  S
O393      Eu1463   2.349       .  S
O393       Eu768   2.364   1_545  S
C394        C689   1.480       .  S
C395        C665   1.466       .  S
C396        C625   1.490       .  S
C397        C601   1.475       .  S
H398        O399   0.967       .  S
O399      Eu1783   2.368       .  S
O399      Eu1462   2.371       .  S
H400        O401   0.964       .  S
O401      Eu1087   2.351       .  S
O401       Eu769   2.361       .  S
O402        C425   1.292       .  A
O402       Eu418   2.463       .  S
O403        C426   1.292       .  A
O403       Eu419   2.459   1_656  S
O404        C427   1.295       .  A
O404       Eu420   2.478       .  S
O405        C428   1.292       .  A
O405       Eu421   2.455       .  S
O406        C429   1.293       .  A
O406      Eu1117   2.469       .  S
O407        C430   1.294       .  A
O407      Eu1116   2.478   1_545  S
O408        C431   1.286       .  A
O408      Eu1814   2.428       .  S
O409        C432   1.286       .  A
O409       Eu422   2.432       .  S
O410        C431   1.297       .  A
O410       Eu420   2.498       .  S
O411        C432   1.292       .  A
O411       Eu421   2.468       .  S
O412        C427   1.292       .  A
O412      Eu1810   2.459       .  S
O413        C430   1.289       .  A
O413      Eu1811   2.450   1_556  S
O414        C429   1.293       .  A
O414       Eu419   2.463   1_556  S
O415        C428   1.295       .  A
O415       Eu418   2.482       .  S
O416        C425   1.291       .  A
O416       Eu422   2.454       .  S
O417        C426   1.292       .  A
O417      Eu1118   2.468   1_655  S
Eu418      O1804   2.465   1_455  S
Eu418      O1443   2.368   1_456  S
Eu418       O436   2.368       .  S
Eu418      O1816   2.357   1_455  S
Eu419      O1805   2.450   1_454  S
Eu419      O1437   2.350   1_455  S
Eu419       O423   2.356   1_554  S
Eu419      O1826   2.357   1_454  S
Eu420      O1103   2.477       .  S
Eu420       O741   2.364   1_556  S
Eu420      O1130   2.355       .  S
Eu420       O424   2.357       .  S
Eu421      O1102   2.470       .  S
Eu421       O749   2.361   1_556  S
Eu421      O1119   2.351       .  S
Eu421       O436   2.352       .  S
Eu422      O1800   2.429   1_455  S
Eu422      O1113   2.467   1_455  S
Eu422      O1119   2.346       .  S
Eu422      O2522   2.343   1_455  S
Eu422       O436   2.353       .  S
Eu422      O1816   2.355   1_455  S
O423      Eu1117   2.350       .  S
O423      Eu1118   2.346       .  S
O424      Eu1810   2.357       .  S
O424      Eu1814   2.353       .  S
C425        C657   1.475       .  S
C426        C641   1.480       .  S
C427        C513   1.486       .  S
C428        C537   1.485   1_556  S
C429        C553   1.480       .  S
C430        C521   1.467       .  S
C431        C569   1.478       .  S
C432        C585   1.470       .  S
H433        O434   0.965       .  S
O434      Eu1811   2.358   1_556  S
O434      Eu1116   2.356   1_545  S
O434      Eu2510   2.342       .  S
H435        O436   0.965       .  S
N437        C442   1.356       .  A
N437        C441   1.354       .  A
N437        H469   1.041       .  S
N438        C445   1.354       .  A
N438        C446   1.354       .  A
N439        C444   1.351       .  A
N439        C443   1.349       .  A
N439        H470   1.041       .  S
N440        C447   1.348       .  A
N440        C448   1.350       .  A
C441        C449   1.388       .  A
C441        C457   1.421       .  A
C442        C458   1.418       .  A
C442        C450   1.386       .  A
C443        C451   1.387       .  A
C443        C460   1.410       .  A
C444        C459   1.410       .  A
C444        C452   1.387       .  A
C445        C457   1.419       .  A
C445        C453   1.387       .  A
C446        C460   1.415       .  A
C446        C454   1.384       .  A
C447        C455   1.387       .  A
C447        C458   1.411       .  A
C448        C456   1.385       .  A
C448        C459   1.410       .  A
C449        C450   1.379       .  A
C449        H461   1.082       .  S
C450        H462   1.082       .  S
C451        C452   1.375       .  A
C451        H463   1.083       .  S
C452        H464   1.082       .  S
C453        C454   1.378       .  A
C453        H465   1.082       .  S
C454        H466   1.082       .  S
C455        C456   1.374       .  A
C455        H467   1.082       .  S
C456        H468   1.082       .  S
C457        C617   1.502       .  S
C458        C609   1.490       .  S
C459        C593   1.484       .  S
C460        C577   1.489       .  S
N471        C476   1.355       .  A
N471        C475   1.353       .  A
N471        H503   1.041       .  S
N472        C479   1.352       .  A
N472        C480   1.353       .  A
N473        C478   1.354   1_554  A
N473        C477   1.354   1_554  A
N473        H504   1.041       .  S
N474        C481   1.351       .  A
N474        C482   1.350       .  A
C475        C483   1.388   1_554  A
C475        C491   1.416       .  A
C476        C492   1.417       .  A
C476        C484   1.386   1_554  A
C477        C485   1.386       .  A
C477        C494   1.418   1_556  A
C478        C493   1.418   1_556  A
C478        C486   1.387       .  A
C479        C491   1.414       .  A
C479        C487   1.386       .  A
C480        C494   1.417       .  A
C480        C488   1.387       .  A
C481        C489   1.386       .  A
C481        C492   1.413       .  A
C482        C490   1.386       .  A
C482        C493   1.412       .  A
C483        C484   1.375       .  A
C483        H495   1.081       .  S
C484        H496   1.082       .  S
C485        C486   1.378       .  A
C485        H497   1.082       .  S
C486        H498   1.082       .  S
C487        C488   1.374       .  A
C487        H499   1.082       .  S
C488        H500   1.082       .  S
C489        C490   1.375       .  A
C489        H501   1.082       .  S
C490        H502   1.082       .  S
C491        C529   1.486       .  S
C492        C561   1.495       .  S
C493        C545   1.493       .  S
C494        C505   1.499   1_554  S
C505        C510   1.410       .  A
C506        C507   1.398       .  A
C506        H515   1.083       .  S
C507        C508   1.402       .  A
C507        H516   1.083       .  S
C508        C514   1.407       .  A
C509        C511   1.403       .  A
C509        C510   1.408       .  A
C510        H517   1.084       .  S
C511        C512   1.400       .  A
C511        H518   1.084       .  S
C512        C513   1.408       .  A
C512        H519   1.083       .  S
C514        H520   1.084       .  S
C521        C522   1.402       .  A
C522        C523   1.398       .  A
C522        H531   1.084       .  S
C523        C524   1.403       .  A
C523        H532   1.084       .  S
C524        C530   1.404       .  A
C525        C527   1.402       .  A
C525        C526   1.404       .  A
C526        H533   1.085       .  S
C527        C528   1.397       .  A
C527        H534   1.084       .  S
C528        H535   1.083       .  S
C529        C530   1.405   1_554  A
C530        H536   1.084       .  S
C537        C542   1.407   1_554  A
C538        C539   1.395       .  A
C538        H547   1.079       .  S
C539        C540   1.399       .  A
C539        H548   1.084       .  S
C540        C546   1.404       .  A
C540        C541   1.415       .  A
C542        H549   1.084       .  S
C543        C544   1.400       .  A
C543        H550   1.083       .  S
C544        C545   1.406   1_556  A
C544        H551   1.083       .  S
C546        H552   1.084       .  S
C553        C554   1.405       .  A
C554        C555   1.397       .  A
C554        H563   1.083       .  S
C555        C556   1.402       .  A
C555        H564   1.084       .  S
C556        C562   1.404       .  A
C557        C559   1.403       .  A
C557        C558   1.407       .  A
C558        H565   1.084       .  S
C559        C560   1.400       .  A
C559        H566   1.083       .  S
C560        H567   1.083       .  S
C561        C562   1.406   1_554  A
C562        H568   1.084       .  S
C569       C1266   1.406       .  A
C569        C574   1.404       .  A
C570       C1265   1.406       .  A
C570        C571   1.395       .  A
C570        H579   1.084       .  S
C571        C572   1.399       .  A
C571        H580   1.084       .  S
C572        C578   1.406       .  A
C572        C573   1.417   1_545  A
C573       C1271   1.402       .  A
C573       C1270   1.410       .  A
C574       C1269   1.409       .  A
C574        H581   1.084       .  S
C575       C1269   1.402       .  A
C575        C576   1.398       .  A
C575        H582   1.083       .  S
C576        C577   1.406       .  A
C576        H583   1.083       .  S
C577       C1274   1.402       .  A
C578       C1273   1.402   1_545  A
C578        H584   1.084       .  S
C585       C1282   1.405       .  A
C585        C590   1.402       .  A
C586       C1281   1.405       .  A
C586        C587   1.394       .  A
C586        H595   1.084       .  S
C587        C588   1.400       .  A
C587        H596   1.084       .  S
C588        C594   1.400       .  A
C588        C589   1.416   1_545  A
C589       C1287   1.401       .  A
C589       C1286   1.402       .  A
C590       C1285   1.402       .  A
C590        H597   1.084       .  S
C591       C1285   1.401       .  A
C591        C592   1.396       .  A
C591        H598   1.084       .  S
C592        C593   1.405       .  A
C592        H599   1.083       .  S
C593       C1290   1.402       .  A
C594       C1289   1.402   1_545  A
C594        H600   1.085       .  S
C601        C602   1.404       .  A
C601       C1302   1.402       .  A
C602        C603   1.397       .  A
C602        H611   1.078       .  S
C603        C604   1.401       .  A
C603        H612   1.084       .  S
C604        C610   1.405       .  A
C604       C1301   1.416       .  A
C605       C1300   1.416   1_545  A
C605        C607   1.400       .  A
C605        C606   1.405       .  A
C606       C1297   1.401   1_545  A
C606        H613   1.084       .  S
C607        C608   1.396       .  A
C607        H614   1.084       .  S
C608       C1305   1.405       .  A
C608        H615   1.083       .  S
C609       C1304   1.405       .  A
C609        C610   1.405       .  A
C610        H616   1.084       .  S
C617        C618   1.407       .  A
C617       C1318   1.410       .  A
C618        C619   1.399       .  A
C618        H627   1.083       .  S
C619        C620   1.402       .  A
C619        H628   1.083       .  S
C620        C626   1.411       .  A
C620       C1317   1.415       .  A
C621       C1316   1.415   1_545  A
C621        C623   1.403       .  A
C621        C622   1.411       .  A
C622       C1313   1.410   1_545  A
C622        H629   1.084       .  S
C623        C624   1.401       .  A
C623        H630   1.084       .  S
C624       C1321   1.409       .  A
C624        H631   1.083       .  S
C625       C1320   1.409       .  A
C625        C626   1.406       .  A
C626        H632   1.084       .  S
C633        C634   1.407   1_655  A
C633       C2030   1.404       .  A
C634        C635   1.398       .  A
C634        H643   1.083       .  S
C635        C636   1.402       .  A
C635        H644   1.084       .  S
C636        C642   1.408       .  A
C636       C2029   1.415   1_455  A
C637       C2028   1.416       .  A
C637        C639   1.400       .  A
C637        C638   1.405       .  A
C638       C2025   1.404       .  A
C638        H645   1.084       .  S
C639        C640   1.397       .  A
C639        H646   1.084       .  S
C640       C2033   1.406       .  A
C640        H647   1.083       .  S
C641       C2032   1.406       .  A
C641        C642   1.407   1_655  A
C642        H648   1.084       .  S
C649       C2042   1.407       .  A
C649        C654   1.407   1_655  A
C650       C2041   1.407       .  A
C650        C651   1.397       .  A
C650        H659   1.083       .  S
C651        C652   1.401       .  A
C651        H660   1.084       .  S
C652        C658   1.406       .  A
C652       C2045   1.415       .  A
C653       C2044   1.415   1_455  A
C653        C655   1.402       .  A
C653        C654   1.404       .  A
C654        H661   1.084       .  S
C655        C656   1.397       .  A
C655        H662   1.084       .  S
C656        C657   1.405       .  A
C656        H663   1.083       .  S
C657       C2050   1.404   1_455  A
C658       C2049   1.405       .  A
C658        H664   1.085       .  S
C665        C666   1.403       .  A
C665       C2062   1.402   1_455  A
C666        C667   1.394       .  A
C666        H675   1.084       .  S
C667        C668   1.400       .  A
C667        H676   1.084       .  S
C668        C674   1.404       .  A
C668       C2061   1.418   1_455  A
C669       C2060   1.418       .  A
C669        C671   1.401       .  A
C669        C670   1.406       .  A
C670       C2057   1.402       .  A
C670        H677   1.084       .  S
C671        C672   1.397       .  A
C671        H678   1.084       .  S
C672       C2065   1.404       .  A
C672        H679   1.083       .  S
C673       C2064   1.404       .  A
C673        C674   1.400   1_655  A
C674        H680   1.084       .  S
C681       C2074   1.405       .  A
C681        C686   1.405   1_655  A
C682       C2073   1.405       .  A
C682        C683   1.398       .  A
C682        H691   1.083       .  S
C683        C684   1.402       .  A
C683        H692   1.083       .  S
C684        C690   1.406       .  A
C684       C2077   1.415       .  A
C685       C2076   1.415   1_455  A
C685        C687   1.401       .  A
C685        C686   1.404       .  A
C686        H693   1.084       .  S
C687        C688   1.397       .  A
C687        H694   1.084       .  S
C688        C689   1.407       .  A
C688        H695   1.083       .  S
C689       C2082   1.406   1_455  A
C690       C2081   1.405       .  A
C690        H696   1.084       .  S
N697        C702   1.353       .  A
N697        C701   1.348       .  A
N697        H729   1.041       .  S
N698        C705   1.352       .  A
N698        C706   1.352       .  A
N699        C704   1.355       .  A
N699        C703   1.354   1_655  A
N699        H730   1.041       .  S
N700        C707   1.350       .  A
N700        C708   1.348       .  A
C701        C709   1.387   1_655  A
C701        C717   1.408       .  A
C702        C718   1.413       .  A
C702        C710   1.387   1_655  A
C703        C711   1.387       .  A
C703        C720   1.418   1_455  A
C704        C719   1.419       .  A
C704        C712   1.387   1_655  A
C705        C717   1.411       .  A
C705        C713   1.384       .  A
C706        C720   1.417       .  A
C706        C714   1.388       .  A
C707        C715   1.385       .  A
C707        C718   1.410       .  A
C708        C716   1.387       .  A
C708        C719   1.411       .  A
C709        C710   1.376       .  A
C709        H721   1.083       .  S
C710        H722   1.082       .  S
C711        C712   1.378       .  A
C711        H723   1.082       .  S
C712        H724   1.082       .  S
C713        C714   1.376       .  A
C713        H725   1.082       .  S
C714        H726   1.082       .  S
C715        C716   1.375       .  A
C715        H727   1.082       .  S
C716        H728   1.082       .  S
C717       C1021   1.481       .  S
C718       C1029   1.491       .  S
C719        C981   1.492       .  S
C720        C997   1.495       .  S
O731        C742   1.294   1_655  A
O731      Eu1115   2.476   1_655  S
O732        C743   1.294       .  A
O732      Eu1114   2.482   1_554  S
O733        C744   1.291       .  A
O733      Eu2131   2.455   1_545  S
O734        C745   1.293       .  A
O734       Eu739   2.475   1_565  S
O735        C745   1.289       .  A
O735      Eu1117   2.442   1_564  S
O736        C744   1.298       .  A
O736      Eu1116   2.496   1_544  S
O737        C743   1.286       .  A
O737       Eu739   2.431   1_565  S
O738        C742   1.289       .  A
Eu739      O2125   2.462   1_455  S
Eu739      O1437   2.347   1_455  S
Eu739       O740   2.341   1_545  S
Eu739      O2139   2.367   1_445  S
O740      Eu1117   2.349   1_564  S
O740      Eu1114   2.345   1_554  S
O741      Eu1435   2.344       .  S
O741      Eu2507   2.349       .  S
C742       C1037   1.480       .  S
C743       C1013   1.467       .  S
C744        C973   1.490       .  S
C745        C949   1.474       .  S
H746        O747   0.967       .  S
O747      Eu2131   2.368       .  S
O747      Eu1116   2.367   1_554  S
O747      Eu2506   2.370   1_554  S
H748        O749   0.964       .  S
O749      Eu1115   2.355       .  S
O750        C773   1.292       .  A
O750       Eu766   2.462       .  S
O751        C774   1.292       .  A
O751       Eu767   2.459   1_655  S
O752        C775   1.295       .  A
O752       Eu768   2.480       .  S
O753        C776   1.291       .  A
O753       Eu769   2.453   1_565  S
O754        C777   1.293       .  A
O755        C778   1.294       .  A
O756        C779   1.287       .  A
O756      Eu2162   2.430       .  S
O757        C780   1.286       .  A
O757       Eu770   2.430       .  S
O758        C779   1.297   1_565  A
O758       Eu768   2.497       .  S
O759        C780   1.292       .  A
O759       Eu769   2.467       .  S
O760        C775   1.291       .  A
O760      Eu2158   2.457       .  S
O761        C778   1.289       .  A
O761      Eu2159   2.450       .  S
O762        C777   1.292       .  A
O762       Eu767   2.462       .  S
O763        C776   1.295       .  A
O763       Eu766   2.484       .  S
O764        C773   1.291       .  A
O764       Eu770   2.455   1_565  S
O765        C774   1.292       .  A
Eu766      O1080   2.482       .  S
Eu766      O2152   2.465   1_455  S
Eu766      O1088   2.345       .  S
Eu766      O2487   2.369   1_455  S
Eu766       O784   2.368       .  S
Eu766      O2164   2.357   1_455  S
Eu767      O1079   2.476   1_455  S
Eu767      O2153   2.450   1_455  S
Eu767      O2481   2.350   1_455  S
Eu767      O1097   2.355       .  S
Eu767       O771   2.356       .  S
Eu767      O2174   2.356   1_455  S
Eu768      O1084   2.496   1_565  S
Eu768      O1095   2.367       .  S
Eu768       O772   2.358       .  S
Eu769      O1083   2.442   1_545  S
Eu769      O1088   2.349   1_545  S
Eu769       O784   2.351   1_545  S
Eu770      O2148   2.429   1_455  S
Eu770      O1478   2.343   1_455  S
Eu770       O784   2.353   1_545  S
Eu770      O2164   2.355   1_445  S
O772      Eu2158   2.357       .  S
O772      Eu2162   2.354   1_565  S
C773       C1005   1.475       .  S
C774        C989   1.480       .  S
C775        C861   1.486       .  S
C776        C885   1.485       .  S
C777        C901   1.480       .  S
C778        C869   1.466       .  S
C779        C917   1.478       .  S
C780        C933   1.469       .  S
H781        O782   0.965       .  S
O782      Eu2159   2.358       .  S
O782      Eu1466   2.342       .  S
H783        O784   0.965       .  S
N785        C790   1.356   1_565  A
N785        C789   1.354   1_565  A
N785        H817   1.041       .  S
N786        C793   1.354       .  A
N786        C794   1.355       .  A
N787        C792   1.351   1_565  A
N787        C791   1.349   1_565  A
N787        H818   1.041       .  S
N788        C795   1.348       .  A
N788        C796   1.350       .  A
C789        C797   1.388       .  A
C789        C805   1.421   1_545  A
C790        C806   1.418   1_545  A
C790        C798   1.386       .  A
C791        C799   1.387       .  A
C791        C808   1.409   1_545  A
C792        C807   1.410   1_545  A
C792        C800   1.387       .  A
C793        C805   1.420       .  A
C793        C801   1.387       .  A
C794        C808   1.415       .  A
C794        C802   1.384       .  A
C795        C803   1.387       .  A
C795        C806   1.410       .  A
C796        C804   1.385       .  A
C796        C807   1.409       .  A
C797        C798   1.379       .  A
C797        H809   1.082       .  S
C798        H810   1.082       .  S
C799        C800   1.374       .  A
C799        H811   1.083       .  S
C800        H812   1.082       .  S
C801        C802   1.378       .  A
C801        H813   1.082       .  S
C802        H814   1.082       .  S
C803        C804   1.374       .  A
C803        H815   1.082       .  S
C804        H816   1.082       .  S
C805        C965   1.502       .  S
C806        C957   1.490   1_565  S
C807        C941   1.483       .  S
C808        C925   1.489       .  S
N819        C824   1.354       .  A
N819        C823   1.352       .  A
N819        H851   1.041       .  S
N820        C827   1.352       .  A
N820        C828   1.352       .  A
N821        C826   1.354       .  A
N821        C825   1.354       .  A
N821        H852   1.042       .  S
N822        C829   1.351       .  A
N822        C830   1.350       .  A
C823        C831   1.388       .  A
C823        C839   1.415       .  A
C824        C840   1.417       .  A
C824        C832   1.386       .  A
C825        C833   1.386       .  A
C825        C842   1.418       .  A
C826        C841   1.418       .  A
C826        C834   1.387       .  A
C827        C839   1.413       .  A
C827        C835   1.386       .  A
C828        C842   1.416       .  A
C828        C836   1.387       .  A
C829        C837   1.386       .  A
C829        C840   1.413       .  A
C830        C838   1.386       .  A
C830        C841   1.412       .  A
C831        C832   1.375       .  A
C831        H843   1.081       .  S
C832        H844   1.082       .  S
C833        C834   1.378       .  A
C833        H845   1.082       .  S
C834        H846   1.082       .  S
C835        C836   1.375       .  A
C835        H847   1.082       .  S
C836        H848   1.082       .  S
C837        C838   1.375       .  A
C837        H849   1.082       .  S
C838        H850   1.082       .  S
C839        C877   1.485       .  S
C840        C909   1.495       .  S
C841        C893   1.493       .  S
C842        C853   1.499       .  S
C853       C1202   1.406       .  A
C853        C858   1.410       .  A
C854       C1201   1.406   1_554  A
C854        C855   1.398       .  A
C854        H863   1.083       .  S
C855        C856   1.401       .  A
C855        H864   1.083       .  S
C856        C862   1.407       .  A
C856       C1205   1.414   1_554  A
C857       C1204   1.414       .  A
C857        C859   1.403       .  A
C857        C858   1.408       .  A
C858        H865   1.084       .  S
C859        C860   1.400       .  A
C859        H866   1.084       .  S
C860        C861   1.408       .  A
C860        H867   1.083       .  S
C861       C1210   1.406       .  A
C862       C1209   1.406   1_554  A
C862        H868   1.084       .  S
C869        C870   1.402       .  A
C869       C1222   1.401       .  A
C870        C871   1.398       .  A
C870        H879   1.084       .  S
C871        C872   1.403       .  A
C871        H880   1.084       .  S
C872        C878   1.404       .  A
C872       C1221   1.416       .  A
C873       C1220   1.416   1_554  A
C873        C875   1.402       .  A
C873        C874   1.404       .  A
C874       C1217   1.401   1_554  A
C874        H881   1.085       .  S
C875        C876   1.397       .  A
C875        H882   1.084       .  S
C876       C1225   1.403       .  A
C876        H883   1.083       .  S
C877       C1224   1.403       .  A
C877        C878   1.404       .  A
C878        H884   1.084       .  S
C885       C1234   1.406       .  A
C885        C890   1.407       .  A
C886       C1233   1.406       .  A
C886        C887   1.396       .  A
C886        H895   1.079       .  S
C887        C888   1.399       .  A
C887        H896   1.084       .  S
C888        C894   1.405       .  A
C888        C889   1.415   1_554  A
C889       C1239   1.403       .  A
C889       C1238   1.410       .  A
C890       C1237   1.410       .  A
C890        H897   1.084       .  S
C891       C1237   1.403       .  A
C891        C892   1.400       .  A
C891        H898   1.083       .  S
C892        C893   1.406       .  A
C892        H899   1.083       .  S
C893       C1242   1.405       .  A
C894       C1241   1.405       .  A
C894        H900   1.084       .  S
C901        C902   1.405       .  A
C901       C1254   1.407       .  A
C902        C903   1.397       .  A
C902        H911   1.083       .  S
C903        C904   1.401       .  A
C903        H912   1.084       .  S
C904        C910   1.404       .  A
C904       C1253   1.414       .  A
C905       C1252   1.414   1_554  A
C905        C907   1.403       .  A
C905        C906   1.407       .  A
C906       C1249   1.407   1_554  A
C906        H913   1.084       .  S
C907        C908   1.400       .  A
C907        H914   1.084       .  S
C908       C1257   1.406       .  A
C908        H915   1.083       .  S
C909       C1256   1.406       .  A
C909        C910   1.406       .  A
C910        H916   1.084       .  S
C917        C922   1.404   1_545  A
C918        C919   1.396       .  A
C918        H927   1.084       .  S
C919        C920   1.400       .  A
C919        H928   1.084       .  S
C920        C926   1.406       .  A
C920        C921   1.417       .  A
C922        H929   1.084       .  S
C923        C924   1.398       .  A
C923        H930   1.083       .  S
C924        C925   1.406       .  A
C924        H931   1.083       .  S
C926        H932   1.084       .  S
C933        C938   1.402   1_545  A
C934        C935   1.395       .  A
C934        H943   1.084       .  S
C935        C936   1.400       .  A
C935        H944   1.084       .  S
C936        C942   1.401       .  A
C936        C937   1.416       .  A
C938        H945   1.085       .  S
C939        C940   1.396       .  A
C939        H946   1.084       .  S
C940        C941   1.405       .  A
C940        H947   1.083       .  S
C942        H948   1.085       .  S
C949        C950   1.404       .  A
C950        C951   1.397       .  A
C950        H959   1.078       .  S
C951        C952   1.401       .  A
C951        H960   1.084       .  S
C952        C958   1.405       .  A
C953        C955   1.401       .  A
C953        C954   1.405       .  A
C954        H961   1.084       .  S
C955        C956   1.397       .  A
C955        H962   1.084       .  S
C956        H963   1.083       .  S
C957        C958   1.405   1_545  A
C958        H964   1.084       .  S
C965        C966   1.407       .  A
C966        C967   1.399       .  A
C966        H975   1.083       .  S
C967        C968   1.402       .  A
C967        H976   1.083       .  S
C968        C974   1.411       .  A
C969        C971   1.403       .  A
C969        C970   1.411       .  A
C970        H977   1.084       .  S
C971        C972   1.401       .  A
C971        H978   1.084       .  S
C972        H979   1.084       .  S
C973        C974   1.406   1_545  A
C974        H980   1.084       .  S
C981        C982   1.407   1_655  A
C981       C2378   1.404       .  A
C982        C983   1.398       .  A
C982        H991   1.083       .  S
C983        C984   1.402       .  A
C983        H992   1.084       .  S
C984        C990   1.407       .  A
C984       C2377   1.415   1_455  A
C985       C2376   1.416       .  A
C985        C987   1.400       .  A
C985        C986   1.405       .  A
C986       C2373   1.404       .  A
C986        H993   1.084       .  S
C987        C988   1.396       .  A
C987        H994   1.084       .  S
C988       C2381   1.406       .  A
C988        H995   1.083       .  S
C989       C2380   1.406       .  A
C989        C990   1.407   1_655  A
C990        H996   1.084       .  S
C997       C2390   1.407       .  A
C997       C1002   1.407   1_655  A
C998       C2389   1.407       .  A
C998        C999   1.397       .  A
C998       H1007   1.083       .  S
C999       C1000   1.401       .  A
C999       H1008   1.084       .  S
C1000      C1006   1.405       .  A
C1000      C2393   1.415       .  A
C1001      C2392   1.415   1_455  A
C1001      C1003   1.402       .  A
C1001      C1002   1.405       .  A
C1002      H1009   1.084       .  S
C1003      C1004   1.397       .  A
C1003      H1010   1.084       .  S
C1004      C1005   1.405       .  A
C1004      H1011   1.083       .  S
C1005      C2398   1.405   1_455  A
C1006      C2397   1.405       .  A
C1006      H1012   1.085       .  S
C1013      C1014   1.403       .  A
C1013      C2410   1.402   1_455  A
C1014      C1015   1.394       .  A
C1014      H1023   1.084       .  S
C1015      C1016   1.400       .  A
C1015      H1024   1.084       .  S
C1016      C1022   1.404       .  A
C1016      C2409   1.418   1_455  A
C1017      C2408   1.418       .  A
C1017      C1019   1.401       .  A
C1017      C1018   1.406       .  A
C1018      C2405   1.402       .  A
C1018      H1025   1.084       .  S
C1019      C1020   1.397       .  A
C1019      H1026   1.084       .  S
C1020      C2413   1.405       .  A
C1020      H1027   1.083       .  S
C1021      C2412   1.404       .  A
C1021      C1022   1.400   1_655  A
C1022      H1028   1.084       .  S
C1029      C2422   1.405       .  A
C1029      C1034   1.406   1_655  A
C1030      C2421   1.405       .  A
C1030      C1031   1.398       .  A
C1030      H1039   1.083       .  S
C1031      C1032   1.403       .  A
C1031      H1040   1.083       .  S
C1032      C1038   1.406       .  A
C1032      C2425   1.415       .  A
C1033      C2424   1.415   1_455  A
C1033      C1035   1.401       .  A
C1033      C1034   1.404       .  A
C1034      H1041   1.084       .  S
C1035      C1036   1.397       .  A
C1035      H1042   1.084       .  S
C1036      C1037   1.407       .  A
C1036      H1043   1.083       .  S
C1037      C2430   1.406   1_455  A
C1038      C2429   1.406       .  A
C1038      H1044   1.084       .  S
N1045      C1050   1.353       .  A
N1045      C1049   1.348       .  A
N1045      H1077   1.041       .  S
N1046      C1053   1.352       .  A
N1046      C1054   1.352       .  A
N1047      C1052   1.355       .  A
N1047      C1051   1.354   1_655  A
N1047      H1078   1.041       .  S
N1048      C1055   1.350       .  A
N1048      C1056   1.348       .  A
C1049      C1057   1.387   1_655  A
C1049      C1065   1.408       .  A
C1050      C1066   1.413       .  A
C1050      C1058   1.387   1_655  A
C1051      C1059   1.387       .  A
C1051      C1068   1.418   1_455  A
C1052      C1067   1.419       .  A
C1052      C1060   1.387   1_655  A
C1053      C1065   1.411       .  A
C1053      C1061   1.384       .  A
C1054      C1068   1.417       .  A
C1054      C1062   1.388       .  A
C1055      C1063   1.385       .  A
C1055      C1066   1.410       .  A
C1056      C1064   1.387       .  A
C1056      C1067   1.411       .  A
C1057      C1058   1.376       .  A
C1057      H1069   1.083       .  S
C1058      H1070   1.082       .  S
C1059      C1060   1.378       .  A
C1059      H1071   1.082       .  S
C1060      H1072   1.082       .  S
C1061      C1062   1.376       .  A
C1061      H1073   1.082       .  S
C1062      H1074   1.082       .  S
C1063      C1064   1.375       .  A
C1063      H1075   1.082       .  S
C1064      H1076   1.082       .  S
C1065      C1369   1.481       .  S
C1066      C1377   1.491       .  S
C1067      C1329   1.492       .  S
C1068      C1345   1.495       .  S
O1079      C1090   1.294   1_655  A
O1080      C1091   1.294       .  A
O1081      C1092   1.291       .  A
O1081     Eu2479   2.456   1_545  S
O1082      C1093   1.293       .  A
O1082     Eu1087   2.475   1_565  S
O1083      C1093   1.289       .  A
O1084      C1092   1.298       .  A
O1085      C1091   1.286       .  A
O1085     Eu1087   2.431   1_565  S
O1086      C1090   1.289       .  A
Eu1087     O2473   2.462   1_455  S
Eu1087     O1785   2.347   1_455  S
Eu1087     O1088   2.341   1_545  S
Eu1087     O2487   2.367   1_445  S
O1089     Eu1783   2.344       .  S
O1089     Eu2159   2.349       .  S
C1090      C1385   1.481       .  S
C1091      C1361   1.467       .  S
C1092      C1321   1.490       .  S
C1093      C1297   1.474       .  S
H1094      O1095   0.967       .  S
O1095     Eu2479   2.368       .  S
O1095     Eu2158   2.370       .  S
H1096      O1097   0.964       .  S
O1098      C1121   1.292       .  A
O1098     Eu1114   2.462       .  S
O1099      C1122   1.292       .  A
O1099     Eu1115   2.459   1_656  S
O1100      C1123   1.295       .  A
O1100     Eu1116   2.480       .  S
O1101      C1124   1.291       .  A
O1101     Eu1117   2.453   1_565  S
O1102      C1125   1.293       .  A
O1103      C1126   1.294       .  A
O1104      C1127   1.287       .  A
O1104     Eu2510   2.430       .  S
O1105      C1128   1.286       .  A
O1105     Eu1118   2.431       .  S
O1106      C1127   1.297   1_565  A
O1106     Eu1116   2.497       .  S
O1107      C1128   1.292       .  A
O1107     Eu1117   2.467       .  S
O1108      C1123   1.291       .  A
O1108     Eu2506   2.457       .  S
O1109      C1126   1.289       .  A
O1109     Eu2507   2.450   1_556  S
O1110      C1125   1.292       .  A
O1110     Eu1115   2.462   1_556  S
O1111      C1124   1.295       .  A
O1111     Eu1114   2.484       .  S
O1112      C1121   1.291       .  A
O1112     Eu1118   2.455   1_565  S
O1113      C1122   1.292       .  A
Eu1114     O2500   2.465   1_455  S
Eu1114     O2139   2.368   1_456  S
Eu1114     O1132   2.368       .  S
Eu1114     O2512   2.357   1_455  S
Eu1115     O2501   2.450   1_455  S
Eu1115     O2133   2.350   1_455  S
Eu1115     O1119   2.356   1_554  S
Eu1115     O2522   2.356   1_454  S
Eu1116     O1120   2.358       .  S
Eu1117     O1132   2.351   1_545  S
Eu1118     O2496   2.429   1_455  S
Eu1118     O1826   2.343   1_455  S
Eu1118     O1132   2.353   1_545  S
Eu1118     O2512   2.355   1_445  S
O1120     Eu2506   2.357       .  S
O1120     Eu2510   2.354   1_565  S
C1121      C1353   1.475       .  S
C1122      C1337   1.480       .  S
C1123      C1209   1.486       .  S
C1124      C1233   1.486   1_556  S
C1125      C1249   1.480       .  S
C1126      C1217   1.466       .  S
C1127      C1265   1.478       .  S
C1128      C1281   1.469       .  S
H1129      O1130   0.964       .  S
O1130     Eu2507   2.358   1_556  S
O1130     Eu1814   2.342       .  S
H1131      O1132   0.965       .  S
N1133      C1138   1.356   1_565  A
N1133      C1137   1.354   1_565  A
N1133      H1165   1.041       .  S
N1134      C1141   1.354       .  A
N1134      C1142   1.355       .  A
N1135      C1140   1.351   1_565  A
N1135      C1139   1.349   1_565  A
N1135      H1166   1.041       .  S
N1136      C1143   1.348       .  A
N1136      C1144   1.350       .  A
C1137      C1145   1.388       .  A
C1137      C1153   1.421   1_545  A
C1138      C1154   1.418   1_545  A
C1138      C1146   1.386       .  A
C1139      C1147   1.387       .  A
C1139      C1156   1.409   1_545  A
C1140      C1155   1.410   1_545  A
C1140      C1148   1.387       .  A
C1141      C1153   1.420       .  A
C1141      C1149   1.387       .  A
C1142      C1156   1.415       .  A
C1142      C1150   1.384       .  A
C1143      C1151   1.387       .  A
C1143      C1154   1.410       .  A
C1144      C1152   1.385       .  A
C1144      C1155   1.409       .  A
C1145      C1146   1.379       .  A
C1145      H1157   1.082       .  S
C1146      H1158   1.082       .  S
C1147      C1148   1.374       .  A
C1147      H1159   1.082       .  S
C1148      H1160   1.082       .  S
C1149      C1150   1.378       .  A
C1149      H1161   1.082       .  S
C1150      H1162   1.082       .  S
C1151      C1152   1.374       .  A
C1151      H1163   1.082       .  S
C1152      H1164   1.082       .  S
C1153      C1313   1.502       .  S
C1154      C1305   1.489   1_565  S
C1155      C1289   1.483       .  S
C1156      C1273   1.489       .  S
N1167      C1172   1.354       .  A
N1167      C1171   1.352       .  A
N1167      H1199   1.041       .  S
N1168      C1175   1.352       .  A
N1168      C1176   1.352       .  A
N1169      C1174   1.354   1_554  A
N1169      C1173   1.354   1_554  A
N1169      H1200   1.042       .  S
N1170      C1177   1.351       .  A
N1170      C1178   1.350       .  A
C1171      C1179   1.388   1_554  A
C1171      C1187   1.415       .  A
C1172      C1188   1.417       .  A
C1172      C1180   1.386   1_554  A
C1173      C1181   1.386       .  A
C1173      C1190   1.418   1_556  A
C1174      C1189   1.418   1_556  A
C1174      C1182   1.387       .  A
C1175      C1187   1.413       .  A
C1175      C1183   1.386       .  A
C1176      C1190   1.416       .  A
C1176      C1184   1.387       .  A
C1177      C1185   1.386       .  A
C1177      C1188   1.413       .  A
C1178      C1186   1.386       .  A
C1178      C1189   1.412       .  A
C1179      C1180   1.375       .  A
C1179      H1191   1.081       .  S
C1180      H1192   1.082       .  S
C1181      C1182   1.378       .  A
C1181      H1193   1.082       .  S
C1182      H1194   1.082       .  S
C1183      C1184   1.375       .  A
C1183      H1195   1.082       .  S
C1184      H1196   1.082       .  S
C1185      C1186   1.375       .  A
C1185      H1197   1.082       .  S
C1186      H1198   1.082       .  S
C1187      C1225   1.485       .  S
C1188      C1257   1.495       .  S
C1189      C1241   1.494       .  S
C1190      C1201   1.499   1_554  S
C1201      C1206   1.410       .  A
C1202      C1203   1.398       .  A
C1202      H1211   1.083       .  S
C1203      C1204   1.401       .  A
C1203      H1212   1.083       .  S
C1204      C1210   1.407       .  A
C1205      C1207   1.403       .  A
C1205      C1206   1.408       .  A
C1206      H1213   1.084       .  S
C1207      C1208   1.400       .  A
C1207      H1214   1.084       .  S
C1208      C1209   1.408       .  A
C1208      H1215   1.083       .  S
C1210      H1216   1.084       .  S
C1217      C1218   1.402       .  A
C1218      C1219   1.398       .  A
C1218      H1227   1.084       .  S
C1219      C1220   1.403       .  A
C1219      H1228   1.084       .  S
C1220      C1226   1.404       .  A
C1221      C1223   1.402       .  A
C1221      C1222   1.404       .  A
C1222      H1229   1.085       .  S
C1223      C1224   1.397       .  A
C1223      H1230   1.084       .  S
C1224      H1231   1.083       .  S
C1225      C1226   1.404   1_554  A
C1226      H1232   1.084       .  S
C1233      C1238   1.407   1_554  A
C1234      C1235   1.396       .  A
C1234      H1243   1.079       .  S
C1235      C1236   1.399       .  A
C1235      H1244   1.084       .  S
C1236      C1242   1.404       .  A
C1236      C1237   1.415       .  A
C1238      H1245   1.084       .  S
C1239      C1240   1.400       .  A
C1239      H1246   1.083       .  S
C1240      C1241   1.406   1_556  A
C1240      H1247   1.083       .  S
C1242      H1248   1.084       .  S
C1249      C1250   1.405       .  A
C1250      C1251   1.397       .  A
C1250      H1259   1.083       .  S
C1251      C1252   1.401       .  A
C1251      H1260   1.084       .  S
C1252      C1258   1.404       .  A
C1253      C1255   1.403       .  A
C1253      C1254   1.407       .  A
C1254      H1261   1.084       .  S
C1255      C1256   1.399       .  A
C1255      H1262   1.084       .  S
C1256      H1263   1.083       .  S
C1257      C1258   1.406   1_554  A
C1258      H1264   1.084       .  S
C1265      C1270   1.404   1_545  A
C1266      C1267   1.395       .  A
C1266      H1275   1.084       .  S
C1267      C1268   1.400       .  A
C1267      H1276   1.084       .  S
C1268      C1274   1.406       .  A
C1268      C1269   1.417       .  A
C1270      H1277   1.084       .  S
C1271      C1272   1.398       .  A
C1271      H1278   1.083       .  S
C1272      C1273   1.406       .  A
C1272      H1279   1.083       .  S
C1274      H1280   1.084       .  S
C1281      C1286   1.402   1_545  A
C1282      C1283   1.395       .  A
C1282      H1291   1.084       .  S
C1283      C1284   1.400       .  A
C1283      H1292   1.084       .  S
C1284      C1290   1.400       .  A
C1284      C1285   1.416       .  A
C1286      H1293   1.085       .  S
C1287      C1288   1.396       .  A
C1287      H1294   1.084       .  S
C1288      C1289   1.405       .  A
C1288      H1295   1.083       .  S
C1290      H1296   1.085       .  S
C1297      C1298   1.404       .  A
C1298      C1299   1.397       .  A
C1298      H1307   1.078       .  S
C1299      C1300   1.401       .  A
C1299      H1308   1.084       .  S
C1300      C1306   1.405       .  A
C1301      C1303   1.400       .  A
C1301      C1302   1.405       .  A
C1302      H1309   1.084       .  S
C1303      C1304   1.397       .  A
C1303      H1310   1.084       .  S
C1304      H1311   1.083       .  S
C1305      C1306   1.404   1_545  A
C1306      H1312   1.084       .  S
C1313      C1314   1.407       .  A
C1314      C1315   1.399       .  A
C1314      H1323   1.083       .  S
C1315      C1316   1.402       .  A
C1315      H1324   1.083       .  S
C1316      C1322   1.411       .  A
C1317      C1319   1.403       .  A
C1317      C1318   1.411       .  A
C1318      H1325   1.084       .  S
C1319      C1320   1.401       .  A
C1319      H1326   1.084       .  S
C1320      H1327   1.084       .  S
C1321      C1322   1.406   1_545  A
C1322      H1328   1.084       .  S
C1329      C1330   1.407   1_655  A
C1329      C2726   1.404       .  A
C1330      C1331   1.398       .  A
C1330      H1339   1.083       .  S
C1331      C1332   1.402       .  A
C1331      H1340   1.084       .  S
C1332      C1338   1.407       .  A
C1332      C2725   1.415   1_455  A
C1333      C2724   1.416       .  A
C1333      C1335   1.400       .  A
C1333      C1334   1.405       .  A
C1334      C2721   1.404       .  A
C1334      H1341   1.084       .  S
C1335      C1336   1.396       .  A
C1335      H1342   1.084       .  S
C1336      C2729   1.406       .  A
C1336      H1343   1.083       .  S
C1337      C2728   1.406       .  A
C1337      C1338   1.407   1_655  A
C1338      H1344   1.084       .  S
C1345      C2738   1.407       .  A
C1345      C1350   1.407   1_655  A
C1346      C2737   1.407       .  A
C1346      C1347   1.397       .  A
C1346      H1355   1.083       .  S
C1347      C1348   1.401       .  A
C1347      H1356   1.084       .  S
C1348      C1354   1.405       .  A
C1348      C2741   1.415       .  A
C1349      C2740   1.415   1_455  A
C1349      C1351   1.402       .  A
C1349      C1350   1.405       .  A
C1350      H1357   1.084       .  S
C1351      C1352   1.397       .  A
C1351      H1358   1.084       .  S
C1352      C1353   1.405       .  A
C1352      H1359   1.083       .  S
C1353      C2746   1.405   1_455  A
C1354      C2745   1.405       .  A
C1354      H1360   1.085       .  S
C1361      C1362   1.403       .  A
C1361      C2758   1.402   1_455  A
C1362      C1363   1.394       .  A
C1362      H1371   1.084       .  S
C1363      C1364   1.400       .  A
C1363      H1372   1.084       .  S
C1364      C1370   1.403       .  A
C1364      C2757   1.418   1_455  A
C1365      C2756   1.418       .  A
C1365      C1367   1.401       .  A
C1365      C1366   1.406       .  A
C1366      C2753   1.402       .  A
C1366      H1373   1.084       .  S
C1367      C1368   1.397       .  A
C1367      H1374   1.084       .  S
C1368      C2761   1.405       .  A
C1368      H1375   1.083       .  S
C1369      C2760   1.404       .  A
C1369      C1370   1.400   1_655  A
C1370      H1376   1.084       .  S
C1377      C2770   1.405       .  A
C1377      C1382   1.406   1_655  A
C1378      C2769   1.405       .  A
C1378      C1379   1.398       .  A
C1378      H1387   1.083       .  S
C1379      C1380   1.402       .  A
C1379      H1388   1.083       .  S
C1380      C1386   1.406       .  A
C1380      C2773   1.415       .  A
C1381      C2772   1.415   1_455  A
C1381      C1383   1.401       .  A
C1381      C1382   1.404       .  A
C1382      H1389   1.084       .  S
C1383      C1384   1.397       .  A
C1383      H1390   1.084       .  S
C1384      C1385   1.407       .  A
C1384      H1391   1.083       .  S
C1385      C2778   1.406   1_455  A
C1386      C2777   1.406       .  A
C1386      H1392   1.084       .  S
N1393      C1398   1.353       .  A
N1393      C1397   1.348       .  A
N1393      H1425   1.042       .  S
N1394      C1401   1.352       .  A
N1394      C1402   1.352       .  A
N1395      C1400   1.355       .  A
N1395      C1399   1.354       .  A
N1395      H1426   1.041       .  S
N1396      C1403   1.350       .  A
N1396      C1404   1.347       .  A
C1397      C1405   1.386       .  A
C1397      C1413   1.407       .  A
C1398      C1414   1.412       .  A
C1398      C1406   1.387       .  A
C1399      C1407   1.387       .  A
C1399      C1416   1.418       .  A
C1400      C1415   1.419       .  A
C1400      C1408   1.387       .  A
C1401      C1413   1.411       .  A
C1401      C1409   1.384       .  A
C1402      C1416   1.418       .  A
C1402      C1410   1.388       .  A
C1403      C1411   1.385       .  A
C1403      C1414   1.410       .  A
C1404      C1412   1.387       .  A
C1404      C1415   1.410       .  A
C1405      C1406   1.376       .  A
C1405      H1417   1.083       .  S
C1406      H1418   1.082       .  S
C1407      C1408   1.378       .  A
C1407      H1419   1.082       .  S
C1408      H1420   1.082       .  S
C1409      C1410   1.377       .  A
C1409      H1421   1.082       .  S
C1410      H1422   1.082       .  S
C1411      C1412   1.375       .  A
C1411      H1423   1.082       .  S
C1412      H1424   1.082       .  S
C1413      C1717   1.481       .  S
C1414      C1725   1.490       .  S
C1415      C1677   1.492       .  S
C1416      C1693   1.496       .  S
O1427      C1438   1.294       .  A
O1427     Eu1811   2.478       .  S
O1428      C1439   1.294       .  A
O1428     Eu1810   2.481   1_554  S
O1429      C1440   1.292       .  A
O1430      C1441   1.292       .  A
O1430     Eu1435   2.470       .  S
O1431      C1441   1.290       .  A
O1431     Eu1813   2.448   1_554  S
O1432      C1440   1.298       .  A
O1432     Eu1812   2.497   1_554  S
O1433      C1439   1.286       .  A
O1433     Eu1435   2.429       .  S
O1434      C1438   1.288       .  A
O1434     Eu2131   2.440   1_545  S
Eu1435     O2130   2.442       .  S
Eu1435     O2141   2.351       .  S
Eu1435     O1436   2.340       .  S
O1436     Eu1813   2.346   1_554  S
O1436     Eu1810   2.344   1_554  S
O1437     Eu2508   2.365   1_544  S
C1438      C1733   1.479       .  S
C1439      C1709   1.467       .  S
C1440      C1669   1.491       .  S
C1441      C1645   1.475       .  S
H1442      O1443   0.967       .  S
O1443     Eu1812   2.366   1_554  S
H1444      O1445   0.964       .  S
O1445     Eu2131   2.350   1_545  S
O1445     Eu1811   2.355       .  S
O1445     Eu2509   2.361   1_554  S
O1446      C1469   1.292       .  A
O1446     Eu1462   2.464       .  S
O1447      C1470   1.291       .  A
O1447     Eu1463   2.458       .  S
O1448      C1471   1.294       .  A
O1448     Eu1464   2.475       .  S
O1449      C1472   1.292       .  A
O1449     Eu1465   2.458       .  S
O1450      C1473   1.293       .  A
O1450     Eu2161   2.468       .  S
O1451      C1474   1.293       .  A
O1451     Eu2160   2.473   1_545  S
O1452      C1475   1.287       .  A
O1453      C1476   1.286       .  A
O1453     Eu1466   2.429       .  S
O1454      C1475   1.298       .  A
O1454     Eu1464   2.500       .  S
O1455      C1476   1.292       .  A
O1455     Eu1465   2.467       .  S
O1456      C1471   1.293       .  A
O1457      C1474   1.290       .  A
O1458      C1473   1.293       .  A
O1458     Eu1463   2.464       .  S
O1459      C1472   1.294       .  A
O1459     Eu1462   2.480       .  S
O1460      C1469   1.291       .  A
O1460     Eu1466   2.455       .  S
O1461      C1470   1.292       .  A
O1461     Eu2162   2.471       .  S
Eu1462     O1776   2.481       .  S
Eu1462     O1784   2.344       .  S
Eu1462     O1480   2.367       .  S
Eu1463     O1775   2.478       .  S
Eu1463     O1793   2.355       .  S
Eu1463     O1467   2.355       .  S
Eu1464     O1780   2.497       .  S
Eu1464     O2147   2.473       .  S
Eu1464     O2481   2.365       .  S
Eu1464     O1791   2.366       .  S
Eu1464     O2174   2.355       .  S
Eu1464     O1468   2.357       .  S
Eu1465     O1779   2.449       .  S
Eu1465     O2146   2.468       .  S
Eu1465     O1784   2.346       .  S
Eu1465     O2489   2.361       .  S
Eu1465     O2163   2.352       .  S
Eu1465     O1480   2.352       .  S
Eu1466     O2157   2.469       .  S
Eu1466     O2163   2.345       .  S
Eu1466     O1480   2.355       .  S
O1467     Eu2161   2.352       .  S
O1467     Eu2162   2.345       .  S
C1469      C1701   1.477       .  S
C1470      C1685   1.481       .  S
C1471      C1557   1.487       .  S
C1472      C1581   1.485       .  S
C1473      C1597   1.480       .  S
C1474      C1565   1.466       .  S
C1475      C1613   1.479       .  S
C1476      C1629   1.468       .  S
H1477      O1478   0.965       .  S
O1478     Eu2160   2.355   1_545  S
H1479      O1480   0.965       .  S
N1481      C1486   1.356       .  A
N1481      C1485   1.355       .  A
N1481      H1513   1.040       .  S
N1482      C1489   1.354       .  A
N1482      C1490   1.355       .  A
N1483      C1488   1.351       .  A
N1483      C1487   1.350       .  A
N1483      H1514   1.041       .  S
N1484      C1491   1.349       .  A
N1484      C1492   1.350       .  A
C1485      C1493   1.388       .  A
C1485      C1501   1.422       .  A
C1486      C1502   1.419       .  A
C1486      C1494   1.386       .  A
C1487      C1495   1.387       .  A
C1487      C1504   1.410       .  A
C1488      C1503   1.410       .  A
C1488      C1496   1.387       .  A
C1489      C1501   1.420       .  A
C1489      C1497   1.387       .  A
C1490      C1504   1.415       .  A
C1490      C1498   1.384       .  A
C1491      C1499   1.387       .  A
C1491      C1502   1.411       .  A
C1492      C1500   1.386       .  A
C1492      C1503   1.410       .  A
C1493      C1494   1.379       .  A
C1493      H1505   1.082       .  S
C1494      H1506   1.082       .  S
C1495      C1496   1.374       .  A
C1495      H1507   1.083       .  S
C1496      H1508   1.082       .  S
C1497      C1498   1.378       .  A
C1497      H1509   1.082       .  S
C1498      H1510   1.082       .  S
C1499      C1500   1.373       .  A
C1499      H1511   1.082       .  S
C1500      H1512   1.082       .  S
C1501      C1661   1.502       .  S
C1502      C1653   1.491       .  S
C1503      C1637   1.482       .  S
C1504      C1621   1.490       .  S
N1515      C1520   1.355       .  A
N1515      C1519   1.353       .  A
N1515      H1547   1.041       .  S
N1516      C1523   1.353       .  A
N1516      C1524   1.353       .  A
N1517      C1522   1.355       .  A
N1517      C1521   1.355       .  A
N1517      H1548   1.041       .  S
N1518      C1525   1.351       .  A
N1518      C1526   1.350       .  A
C1519      C1527   1.389       .  A
C1519      C1535   1.417       .  A
C1520      C1536   1.416       .  A
C1520      C1528   1.385       .  A
C1521      C1529   1.386       .  A
C1521      C1538   1.419       .  A
C1522      C1537   1.419       .  A
C1522      C1530   1.387       .  A
C1523      C1535   1.416       .  A
C1523      C1531   1.387       .  A
C1524      C1538   1.417       .  A
C1524      C1532   1.386       .  A
C1525      C1533   1.386       .  A
C1525      C1536   1.413       .  A
C1526      C1534   1.386       .  A
C1526      C1537   1.412       .  A
C1527      C1528   1.374       .  A
C1527      H1539   1.080       .  S
C1528      H1540   1.082       .  S
C1529      C1530   1.378       .  A
C1529      H1541   1.082       .  S
C1530      H1542   1.082       .  S
C1531      C1532   1.373       .  A
C1531      H1543   1.081       .  S
C1532      H1544   1.082       .  S
C1533      C1534   1.375       .  A
C1533      H1545   1.082       .  S
C1534      H1546   1.082       .  S
C1535      C1573   1.488       .  S
C1536      C1605   1.495       .  S
C1537      C1589   1.493       .  S
C1538      C1549   1.502       .  S
C1549      C1898   1.407       .  A
C1549      C1554   1.410       .  A
C1550      C1897   1.407       .  A
C1550      C1551   1.399       .  A
C1550      H1559   1.083       .  S
C1551      C1552   1.402       .  A
C1551      H1560   1.083       .  S
C1552      C1558   1.408       .  A
C1552      C1901   1.414   1_554  A
C1553      C1900   1.414       .  A
C1553      C1555   1.403       .  A
C1553      C1554   1.408       .  A
C1554      H1561   1.084       .  S
C1555      C1556   1.400       .  A
C1555      H1562   1.084       .  S
C1556      C1557   1.407       .  A
C1556      H1563   1.083       .  S
C1557      C1906   1.408       .  A
C1558      C1905   1.408   1_554  A
C1558      H1564   1.084       .  S
C1565      C1566   1.402       .  A
C1565      C1918   1.401       .  A
C1566      C1567   1.398       .  A
C1566      H1575   1.084       .  S
C1567      C1568   1.403       .  A
C1567      H1576   1.084       .  S
C1568      C1574   1.404       .  A
C1568      C1917   1.415       .  A
C1569      C1916   1.415   1_554  A
C1569      C1571   1.402       .  A
C1569      C1570   1.403       .  A
C1570      C1913   1.401   1_554  A
C1570      H1577   1.085       .  S
C1571      C1572   1.397       .  A
C1571      H1578   1.084       .  S
C1572      C1921   1.404       .  A
C1572      H1579   1.083       .  S
C1573      C1920   1.404       .  A
C1573      C1574   1.405       .  A
C1574      H1580   1.084       .  S
C1581      C1930   1.405       .  A
C1581      C1586   1.408       .  A
C1582      C1929   1.405       .  A
C1582      C1583   1.395       .  A
C1582      H1591   1.078       .  S
C1583      C1584   1.399       .  A
C1583      H1592   1.084       .  S
C1584      C1590   1.404       .  A
C1584      C1585   1.415   1_554  A
C1585      C1935   1.403       .  A
C1585      C1934   1.411       .  A
C1586      C1933   1.411       .  A
C1586      H1593   1.084       .  S
C1587      C1933   1.403       .  A
C1587      C1588   1.401       .  A
C1587      H1594   1.083       .  S
C1588      C1589   1.407       .  A
C1588      H1595   1.083       .  S
C1589      C1938   1.403       .  A
C1590      C1937   1.404       .  A
C1590      H1596   1.084       .  S
C1597      C1598   1.405       .  A
C1597      C1950   1.407       .  A
C1598      C1599   1.397       .  A
C1598      H1607   1.083       .  S
C1599      C1600   1.401       .  A
C1599      H1608   1.084       .  S
C1600      C1606   1.404       .  A
C1600      C1949   1.414       .  A
C1601      C1948   1.414   1_554  A
C1601      C1603   1.403       .  A
C1601      C1602   1.408       .  A
C1602      C1945   1.407   1_554  A
C1602      H1609   1.084       .  S
C1603      C1604   1.400       .  A
C1603      H1610   1.083       .  S
C1604      C1953   1.406       .  A
C1604      H1611   1.083       .  S
C1605      C1952   1.406       .  A
C1605      C1606   1.406       .  A
C1606      H1612   1.084       .  S
C1613      C2310   1.407       .  A
C1613      C1618   1.404       .  A
C1614      C2309   1.407       .  A
C1614      C1615   1.396       .  A
C1614      H1623   1.084       .  S
C1615      C1616   1.400       .  A
C1615      H1624   1.084       .  S
C1616      C1622   1.407       .  A
C1616      C1617   1.417   1_545  A
C1617      C2315   1.402       .  A
C1617      C2314   1.410       .  A
C1618      C2313   1.410       .  A
C1618      H1625   1.084       .  S
C1619      C2313   1.402       .  A
C1619      C1620   1.398       .  A
C1619      H1626   1.083       .  S
C1620      C1621   1.406       .  A
C1620      H1627   1.083       .  S
C1621      C2318   1.403       .  A
C1622      C2317   1.403   1_545  A
C1622      H1628   1.084       .  S
C1629      C2326   1.405       .  A
C1629      C1634   1.402       .  A
C1630      C2325   1.405       .  A
C1630      C1631   1.394       .  A
C1630      H1639   1.084       .  S
C1631      C1632   1.400       .  A
C1631      H1640   1.084       .  S
C1632      C1638   1.400       .  A
C1632      C1633   1.416   1_545  A
C1633      C2331   1.401       .  A
C1633      C2330   1.402       .  A
C1634      C2329   1.401       .  A
C1634      H1641   1.085       .  S
C1635      C2329   1.401       .  A
C1635      C1636   1.395       .  A
C1635      H1642   1.084       .  S
C1636      C1637   1.404       .  A
C1636      H1643   1.083       .  S
C1637      C2334   1.402       .  A
C1638      C2333   1.402   1_545  A
C1638      H1644   1.085       .  S
C1645      C1646   1.403       .  A
C1645      C2346   1.402       .  A
C1646      C1647   1.396       .  A
C1646      H1655   1.077       .  S
C1647      C1648   1.401       .  A
C1647      H1656   1.084       .  S
C1648      C1654   1.405       .  A
C1648      C2345   1.416       .  A
C1649      C2344   1.416   1_545  A
C1649      C1651   1.401       .  A
C1649      C1650   1.406       .  A
C1650      C2341   1.403   1_545  A
C1650      H1657   1.084       .  S
C1651      C1652   1.398       .  A
C1651      H1658   1.084       .  S
C1652      C2349   1.406       .  A
C1652      H1659   1.083       .  S
C1653      C2348   1.406       .  A
C1653      C1654   1.404       .  A
C1654      H1660   1.084       .  S
C1661      C1662   1.407       .  A
C1661      C2362   1.410       .  A
C1662      C1663   1.400       .  A
C1662      H1671   1.083       .  S
C1663      C1664   1.403       .  A
C1663      H1672   1.083       .  S
C1664      C1670   1.412       .  A
C1664      C2361   1.415       .  A
C1665      C2360   1.415   1_545  A
C1665      C1667   1.403       .  A
C1665      C1666   1.412       .  A
C1666      C2357   1.410   1_545  A
C1666      H1673   1.084       .  S
C1667      C1668   1.401       .  A
C1667      H1674   1.084       .  S
C1668      C2365   1.409       .  A
C1668      H1675   1.083       .  S
C1669      C2364   1.409       .  A
C1669      C1670   1.408       .  A
C1670      H1676   1.084       .  S
C1677      C1678   1.406       .  A
C1678      C1679   1.398       .  A
C1678      H1687   1.083       .  S
C1679      C1680   1.402       .  A
C1679      H1688   1.084       .  S
C1680      C1686   1.408       .  A
C1681      C1683   1.400       .  A
C1681      C1682   1.405       .  A
C1682      H1689   1.084       .  S
C1683      C1684   1.396       .  A
C1683      H1690   1.084       .  S
C1684      H1691   1.083       .  S
C1685      C1686   1.406       .  A
C1686      H1692   1.084       .  S
C1693      C1698   1.407       .  A
C1694      C1695   1.397       .  A
C1694      H1703   1.083       .  S
C1695      C1696   1.401       .  A
C1695      H1704   1.084       .  S
C1696      C1702   1.405       .  A
C1697      C1699   1.402       .  A
C1697      C1698   1.405       .  A
C1698      H1705   1.084       .  S
C1699      C1700   1.397       .  A
C1699      H1706   1.084       .  S
C1700      C1701   1.405       .  A
C1700      H1707   1.083       .  S
C1702      H1708   1.085       .  S
C1709      C1710   1.403       .  A
C1710      C1711   1.394       .  A
C1710      H1719   1.084       .  S
C1711      C1712   1.400       .  A
C1711      H1720   1.084       .  S
C1712      C1718   1.404       .  A
C1713      C1715   1.402       .  A
C1713      C1714   1.407       .  A
C1714      H1721   1.085       .  S
C1715      C1716   1.397       .  A
C1715      H1722   1.084       .  S
C1716      H1723   1.083       .  S
C1717      C1718   1.400       .  A
C1718      H1724   1.084       .  S
C1725      C1730   1.405       .  A
C1726      C1727   1.398       .  A
C1726      H1735   1.083       .  S
C1727      C1728   1.403       .  A
C1727      H1736   1.083       .  S
C1728      C1734   1.406       .  A
C1729      C1731   1.401       .  A
C1729      C1730   1.404       .  A
C1730      H1737   1.084       .  S
C1731      C1732   1.397       .  A
C1731      H1738   1.084       .  S
C1732      C1733   1.407       .  A
C1732      H1739   1.083       .  S
C1734      H1740   1.084       .  S
N1741      C1746   1.353       .  A
N1741      C1745   1.348       .  A
N1741      H1773   1.042       .  S
N1742      C1749   1.352       .  A
N1742      C1750   1.352       .  A
N1743      C1748   1.355       .  A
N1743      C1747   1.353       .  A
N1743      H1774   1.041       .  S
N1744      C1751   1.350       .  A
N1744      C1752   1.347       .  A
C1745      C1753   1.386       .  A
C1745      C1761   1.407       .  A
C1746      C1762   1.412       .  A
C1746      C1754   1.387       .  A
C1747      C1755   1.387       .  A
C1747      C1764   1.418       .  A
C1748      C1763   1.419       .  A
C1748      C1756   1.387       .  A
C1749      C1761   1.411       .  A
C1749      C1757   1.384       .  A
C1750      C1764   1.417       .  A
C1750      C1758   1.388       .  A
C1751      C1759   1.385       .  A
C1751      C1762   1.410       .  A
C1752      C1760   1.387       .  A
C1752      C1763   1.410       .  A
C1753      C1754   1.376       .  A
C1753      H1765   1.083       .  S
C1754      H1766   1.082       .  S
C1755      C1756   1.378       .  A
C1755      H1767   1.082       .  S
C1756      H1768   1.082       .  S
C1757      C1758   1.377       .  A
C1757      H1769   1.082       .  S
C1758      H1770   1.082       .  S
C1759      C1760   1.375       .  A
C1759      H1771   1.082       .  S
C1760      H1772   1.082       .  S
C1761      C2065   1.481       .  S
C1762      C2073   1.490       .  S
C1763      C2025   1.491       .  S
C1764      C2041   1.496       .  S
O1775      C1786   1.294       .  A
O1776      C1787   1.294       .  A
O1777      C1788   1.292       .  A
O1778      C1789   1.292       .  A
O1778     Eu1783   2.470       .  S
O1779      C1789   1.290       .  A
O1780      C1788   1.298       .  A
O1781      C1787   1.286       .  A
O1781     Eu1783   2.429       .  S
O1782      C1786   1.288       .  A
O1782     Eu2479   2.440   1_545  S
Eu1783     O2478   2.442       .  S
Eu1783     O2489   2.351       .  S
Eu1783     O1784   2.340       .  S
O1785     Eu2160   2.365   1_545  S
C1786      C2081   1.479       .  S
C1787      C2057   1.467       .  S
C1788      C2017   1.491       .  S
C1789      C1993   1.475       .  S
H1790      O1791   0.967       .  S
H1792      O1793   0.964       .  S
O1793     Eu2479   2.350   1_545  S
O1793     Eu2161   2.361       .  S
O1794      C1817   1.292       .  A
O1794     Eu1810   2.464       .  S
O1795      C1818   1.291       .  A
O1795     Eu1811   2.458   1_556  S
O1796      C1819   1.294       .  A
O1796     Eu1812   2.475       .  S
O1797      C1820   1.292       .  A
O1797     Eu1813   2.458       .  S
O1798      C1821   1.293       .  A
O1798     Eu2509   2.468       .  S
O1799      C1822   1.293       .  A
O1799     Eu2508   2.474   1_545  S
O1800      C1823   1.287       .  A
O1801      C1824   1.286       .  A
O1801     Eu1814   2.429       .  S
O1802      C1823   1.298       .  A
O1802     Eu1812   2.500       .  S
O1803      C1824   1.292       .  A
O1803     Eu1813   2.467       .  S
O1804      C1819   1.293       .  A
O1805      C1822   1.290       .  A
O1806      C1821   1.293       .  A
O1806     Eu1811   2.464   1_556  S
O1807      C1820   1.294       .  A
O1807     Eu1810   2.480       .  S
O1808      C1817   1.291       .  A
O1808     Eu1814   2.455       .  S
O1809      C1818   1.292       .  A
O1809     Eu2510   2.470       .  S
Eu1810     O1828   2.367       .  S
Eu1811     O1815   2.354   1_554  S
Eu1812     O2495   2.472       .  S
Eu1812     O2133   2.365   1_556  S
Eu1812     O2522   2.355       .  S
Eu1812     O1816   2.357       .  S
Eu1813     O2494   2.468       .  S
Eu1813     O2141   2.361   1_556  S
Eu1813     O2511   2.352       .  S
Eu1813     O1828   2.352       .  S
Eu1814     O2505   2.469       .  S
Eu1814     O2511   2.345       .  S
Eu1814     O1828   2.355       .  S
O1815     Eu2509   2.352       .  S
O1815     Eu2510   2.345       .  S
C1817      C2049   1.477       .  S
C1818      C2033   1.481       .  S
C1819      C1905   1.487       .  S
C1820      C1929   1.485   1_556  S
C1821      C1945   1.480       .  S
C1822      C1913   1.466       .  S
C1823      C1961   1.479       .  S
C1824      C1977   1.468       .  S
H1825      O1826   0.965       .  S
O1826     Eu2508   2.355   1_545  S
H1827      O1828   0.965       .  S
N1829      C1834   1.356       .  A
N1829      C1833   1.355       .  A
N1829      H1861   1.040       .  S
N1830      C1837   1.354       .  A
N1830      C1838   1.355       .  A
N1831      C1836   1.351       .  A
N1831      C1835   1.350       .  A
N1831      H1862   1.041       .  S
N1832      C1839   1.349       .  A
N1832      C1840   1.350       .  A
C1833      C1841   1.388       .  A
C1833      C1849   1.422       .  A
C1834      C1850   1.419       .  A
C1834      C1842   1.386       .  A
C1835      C1843   1.387       .  A
C1835      C1852   1.410       .  A
C1836      C1851   1.410       .  A
C1836      C1844   1.387       .  A
C1837      C1849   1.420       .  A
C1837      C1845   1.387       .  A
C1838      C1852   1.415       .  A
C1838      C1846   1.384       .  A
C1839      C1847   1.387       .  A
C1839      C1850   1.410       .  A
C1840      C1848   1.386       .  A
C1840      C1851   1.410       .  A
C1841      C1842   1.379       .  A
C1841      H1853   1.082       .  S
C1842      H1854   1.082       .  S
C1843      C1844   1.374       .  A
C1843      H1855   1.083       .  S
C1844      H1856   1.082       .  S
C1845      C1846   1.378       .  A
C1845      H1857   1.082       .  S
C1846      H1858   1.082       .  S
C1847      C1848   1.373       .  A
C1847      H1859   1.082       .  S
C1848      H1860   1.082       .  S
C1849      C2009   1.502       .  S
C1850      C2001   1.491       .  S
C1851      C1985   1.482       .  S
C1852      C1969   1.490       .  S
N1863      C1868   1.355       .  A
N1863      C1867   1.353       .  A
N1863      H1895   1.041       .  S
N1864      C1871   1.353       .  A
N1864      C1872   1.353       .  A
N1865      C1870   1.355   1_554  A
N1865      C1869   1.355   1_554  A
N1865      H1896   1.041       .  S
N1866      C1873   1.351       .  A
N1866      C1874   1.350       .  A
C1867      C1875   1.389   1_554  A
C1867      C1883   1.417       .  A
C1868      C1884   1.416       .  A
C1868      C1876   1.385   1_554  A
C1869      C1877   1.386       .  A
C1869      C1886   1.419   1_556  A
C1870      C1885   1.419   1_556  A
C1870      C1878   1.387       .  A
C1871      C1883   1.416       .  A
C1871      C1879   1.386       .  A
C1872      C1886   1.417       .  A
C1872      C1880   1.386       .  A
C1873      C1881   1.386       .  A
C1873      C1884   1.413       .  A
C1874      C1882   1.386       .  A
C1874      C1885   1.412       .  A
C1875      C1876   1.374       .  A
C1875      H1887   1.080       .  S
C1876      H1888   1.082       .  S
C1877      C1878   1.378       .  A
C1877      H1889   1.082       .  S
C1878      H1890   1.082       .  S
C1879      C1880   1.373       .  A
C1879      H1891   1.081       .  S
C1880      H1892   1.082       .  S
C1881      C1882   1.375       .  A
C1881      H1893   1.082       .  S
C1882      H1894   1.082       .  S
C1883      C1921   1.488       .  S
C1884      C1953   1.495       .  S
C1885      C1937   1.493       .  S
C1886      C1897   1.502       .  S
C1897      C1902   1.410   1_554  A
C1898      C1899   1.399       .  A
C1898      H1907   1.083       .  S
C1899      C1900   1.402       .  A
C1899      H1908   1.083       .  S
C1900      C1906   1.408       .  A
C1901      C1903   1.403       .  A
C1901      C1902   1.408       .  A
C1902      H1909   1.084       .  S
C1903      C1904   1.400       .  A
C1903      H1910   1.084       .  S
C1904      C1905   1.407       .  A
C1904      H1911   1.083       .  S
C1906      H1912   1.084       .  S
C1913      C1914   1.402       .  A
C1914      C1915   1.398       .  A
C1914      H1923   1.084       .  S
C1915      C1916   1.403       .  A
C1915      H1924   1.084       .  S
C1916      C1922   1.404       .  A
C1917      C1919   1.402       .  A
C1917      C1918   1.403       .  A
C1918      H1925   1.085       .  S
C1919      C1920   1.397       .  A
C1919      H1926   1.084       .  S
C1920      H1927   1.083       .  S
C1921      C1922   1.405   1_554  A
C1922      H1928   1.084       .  S
C1929      C1934   1.408   1_554  A
C1930      C1931   1.395       .  A
C1930      H1939   1.078       .  S
C1931      C1932   1.399       .  A
C1931      H1940   1.084       .  S
C1932      C1938   1.404       .  A
C1932      C1933   1.415       .  A
C1934      H1941   1.084       .  S
C1935      C1936   1.401       .  A
C1935      H1942   1.083       .  S
C1936      C1937   1.407   1_556  A
C1936      H1943   1.083       .  S
C1938      H1944   1.084       .  S
C1945      C1946   1.405       .  A
C1946      C1947   1.397       .  A
C1946      H1955   1.083       .  S
C1947      C1948   1.401       .  A
C1947      H1956   1.084       .  S
C1948      C1954   1.404       .  A
C1949      C1951   1.403       .  A
C1949      C1950   1.407       .  A
C1950      H1957   1.084       .  S
C1951      C1952   1.400       .  A
C1951      H1958   1.083       .  S
C1952      H1959   1.083       .  S
C1953      C1954   1.406   1_554  A
C1954      H1960   1.084       .  S
C1961      C2658   1.407       .  A
C1961      C1966   1.404       .  A
C1962      C2657   1.407       .  A
C1962      C1963   1.396       .  A
C1962      H1971   1.084       .  S
C1963      C1964   1.400       .  A
C1963      H1972   1.084       .  S
C1964      C1970   1.407       .  A
C1964      C1965   1.417   1_545  A
C1965      C2663   1.402       .  A
C1965      C2662   1.410       .  A
C1966      C2661   1.410       .  A
C1966      H1973   1.084       .  S
C1967      C2661   1.402       .  A
C1967      C1968   1.398       .  A
C1967      H1974   1.083       .  S
C1968      C1969   1.406       .  A
C1968      H1975   1.083       .  S
C1969      C2666   1.403       .  A
C1970      C2665   1.403   1_545  A
C1970      H1976   1.084       .  S
C1977      C2674   1.405       .  A
C1977      C1982   1.402       .  A
C1978      C2673   1.405       .  A
C1978      C1979   1.394       .  A
C1978      H1987   1.084       .  S
C1979      C1980   1.400       .  A
C1979      H1988   1.084       .  S
C1980      C1986   1.400       .  A
C1980      C1981   1.416   1_545  A
C1981      C2679   1.401       .  A
C1981      C2678   1.402       .  A
C1982      C2677   1.401       .  A
C1982      H1989   1.085       .  S
C1983      C2677   1.401       .  A
C1983      C1984   1.395       .  A
C1983      H1990   1.084       .  S
C1984      C1985   1.404       .  A
C1984      H1991   1.083       .  S
C1985      C2682   1.402       .  A
C1986      C2681   1.402   1_545  A
C1986      H1992   1.085       .  S
C1993      C1994   1.403       .  A
C1993      C2694   1.402       .  A
C1994      C1995   1.396       .  A
C1994      H2003   1.077       .  S
C1995      C1996   1.401       .  A
C1995      H2004   1.084       .  S
C1996      C2002   1.405       .  A
C1996      C2693   1.416       .  A
C1997      C2692   1.416   1_545  A
C1997      C1999   1.401       .  A
C1997      C1998   1.406       .  A
C1998      C2689   1.403   1_545  A
C1998      H2005   1.084       .  S
C1999      C2000   1.398       .  A
C1999      H2006   1.084       .  S
C2000      C2697   1.406       .  A
C2000      H2007   1.083       .  S
C2001      C2696   1.406       .  A
C2001      C2002   1.404       .  A
C2002      H2008   1.084       .  S
C2009      C2010   1.407       .  A
C2009      C2710   1.410       .  A
C2010      C2011   1.400       .  A
C2010      H2019   1.083       .  S
C2011      C2012   1.403       .  A
C2011      H2020   1.083       .  S
C2012      C2018   1.412       .  A
C2012      C2709   1.415       .  A
C2013      C2708   1.415   1_545  A
C2013      C2015   1.403       .  A
C2013      C2014   1.412       .  A
C2014      C2705   1.410   1_545  A
C2014      H2021   1.084       .  S
C2015      C2016   1.401       .  A
C2015      H2022   1.084       .  S
C2016      C2713   1.409       .  A
C2016      H2023   1.083       .  S
C2017      C2712   1.409       .  A
C2017      C2018   1.408       .  A
C2018      H2024   1.084       .  S
C2025      C2026   1.406       .  A
C2026      C2027   1.398       .  A
C2026      H2035   1.083       .  S
C2027      C2028   1.402       .  A
C2027      H2036   1.084       .  S
C2028      C2034   1.407       .  A
C2029      C2031   1.400       .  A
C2029      C2030   1.405       .  A
C2030      H2037   1.084       .  S
C2031      C2032   1.396       .  A
C2031      H2038   1.084       .  S
C2032      H2039   1.083       .  S
C2033      C2034   1.406       .  A
C2034      H2040   1.084       .  S
C2041      C2046   1.407       .  A
C2042      C2043   1.397       .  A
C2042      H2051   1.083       .  S
C2043      C2044   1.401       .  A
C2043      H2052   1.084       .  S
C2044      C2050   1.405       .  A
C2045      C2047   1.402       .  A
C2045      C2046   1.405       .  A
C2046      H2053   1.084       .  S
C2047      C2048   1.397       .  A
C2047      H2054   1.084       .  S
C2048      C2049   1.405       .  A
C2048      H2055   1.083       .  S
C2050      H2056   1.085       .  S
C2057      C2058   1.403       .  A
C2058      C2059   1.394       .  A
C2058      H2067   1.084       .  S
C2059      C2060   1.400       .  A
C2059      H2068   1.084       .  S
C2060      C2066   1.404       .  A
C2061      C2063   1.402       .  A
C2061      C2062   1.407       .  A
C2062      H2069   1.085       .  S
C2063      C2064   1.397       .  A
C2063      H2070   1.084       .  S
C2064      H2071   1.083       .  S
C2065      C2066   1.400       .  A
C2066      H2072   1.084       .  S
C2073      C2078   1.405       .  A
C2074      C2075   1.398       .  A
C2074      H2083   1.083       .  S
C2075      C2076   1.403       .  A
C2075      H2084   1.083       .  S
C2076      C2082   1.406       .  A
C2077      C2079   1.401       .  A
C2077      C2078   1.404       .  A
C2078      H2085   1.084       .  S
C2079      C2080   1.397       .  A
C2079      H2086   1.084       .  S
C2080      C2081   1.407       .  A
C2080      H2087   1.083       .  S
C2082      H2088   1.084       .  S
N2089      C2094   1.353       .  A
N2089      C2093   1.348       .  A
N2089      H2121   1.042       .  S
N2090      C2097   1.352       .  A
N2090      C2098   1.352       .  A
N2091      C2096   1.355       .  A
N2091      C2095   1.354       .  A
N2091      H2122   1.041       .  S
N2092      C2099   1.350       .  A
N2092      C2100   1.347       .  A
C2093      C2101   1.386       .  A
C2093      C2109   1.407       .  A
C2094      C2110   1.412       .  A
C2094      C2102   1.387       .  A
C2095      C2103   1.387       .  A
C2095      C2112   1.418       .  A
C2096      C2111   1.419       .  A
C2096      C2104   1.387       .  A
C2097      C2109   1.411       .  A
C2097      C2105   1.384       .  A
C2098      C2112   1.417       .  A
C2098      C2106   1.388       .  A
C2099      C2107   1.385       .  A
C2099      C2110   1.410       .  A
C2100      C2108   1.387       .  A
C2100      C2111   1.410       .  A
C2101      C2102   1.376       .  A
C2101      H2113   1.083       .  S
C2102      H2114   1.082       .  S
C2103      C2104   1.378       .  A
C2103      H2115   1.082       .  S
C2104      H2116   1.082       .  S
C2105      C2106   1.377       .  A
C2105      H2117   1.082       .  S
C2106      H2118   1.082       .  S
C2107      C2108   1.375       .  A
C2107      H2119   1.082       .  S
C2108      H2120   1.082       .  S
C2109      C2413   1.481       .  S
C2110      C2421   1.491       .  S
C2111      C2373   1.491       .  S
C2112      C2389   1.496       .  S
O2123      C2134   1.294       .  A
O2123     Eu2507   2.478       .  S
O2124      C2135   1.294       .  A
O2124     Eu2506   2.482   1_554  S
O2125      C2136   1.292       .  A
O2126      C2137   1.292       .  A
O2126     Eu2131   2.470       .  S
O2127      C2137   1.290       .  A
O2127     Eu2509   2.449   1_564  S
O2128      C2136   1.298       .  A
O2128     Eu2508   2.497   1_544  S
O2129      C2135   1.286       .  A
O2129     Eu2131   2.427       .  S
O2130      C2134   1.288       .  A
Eu2131     O2132   2.340       .  S
O2132     Eu2509   2.346   1_564  S
O2132     Eu2506   2.344   1_554  S
C2134      C2429   1.480       .  S
C2135      C2405   1.467       .  S
C2136      C2365   1.491       .  S
C2137      C2341   1.475       .  S
H2138      O2139   0.967       .  S
O2139     Eu2508   2.366   1_554  S
H2140      O2141   0.964       .  S
O2141     Eu2507   2.355       .  S
O2142      C2165   1.292       .  A
O2142     Eu2158   2.464       .  S
O2143      C2166   1.291       .  A
O2143     Eu2159   2.458       .  S
O2144      C2167   1.294       .  A
O2144     Eu2160   2.474       .  S
O2145      C2168   1.292       .  A
O2145     Eu2161   2.459   1_565  S
O2146      C2169   1.293       .  A
O2147      C2170   1.293       .  A
O2148      C2171   1.286       .  A
O2149      C2172   1.286       .  A
O2149     Eu2162   2.430       .  S
O2150      C2171   1.298   1_565  A
O2150     Eu2160   2.501       .  S
O2151      C2172   1.292       .  A
O2151     Eu2161   2.467       .  S
O2152      C2167   1.293       .  A
O2153      C2170   1.289       .  A
O2154      C2169   1.293       .  A
O2154     Eu2159   2.465       .  S
O2155      C2168   1.294       .  A
O2155     Eu2158   2.479       .  S
O2156      C2165   1.291       .  A
O2156     Eu2162   2.455   1_565  S
O2157      C2166   1.292       .  A
Eu2158     O2472   2.482       .  S
Eu2158     O2480   2.344       .  S
Eu2158     O2176   2.367       .  S
Eu2159     O2471   2.478       .  S
Eu2159     O2489   2.355       .  S
Eu2159     O2163   2.355       .  S
Eu2160     O2476   2.497   1_565  S
Eu2160     O2487   2.366       .  S
Eu2160     O2164   2.357       .  S
Eu2161     O2475   2.449   1_545  S
Eu2161     O2480   2.346   1_545  S
Eu2161     O2176   2.352   1_545  S
Eu2162     O2176   2.356   1_545  S
C2165      C2397   1.477       .  S
C2166      C2381   1.480       .  S
C2167      C2253   1.486       .  S
C2168      C2277   1.485       .  S
C2169      C2293   1.480       .  S
C2170      C2261   1.465       .  S
C2171      C2309   1.479       .  S
C2172      C2325   1.469       .  S
H2173      O2174   0.965       .  S
H2175      O2176   0.965       .  S
N2177      C2182   1.356   1_565  A
N2177      C2181   1.355   1_565  A
N2177      H2209   1.040       .  S
N2178      C2185   1.354       .  A
N2178      C2186   1.355       .  A
N2179      C2184   1.351   1_565  A
N2179      C2183   1.350   1_565  A
N2179      H2210   1.041       .  S
N2180      C2187   1.349       .  A
N2180      C2188   1.350       .  A
C2181      C2189   1.388       .  A
C2181      C2197   1.422   1_545  A
C2182      C2198   1.420   1_545  A
C2182      C2190   1.386       .  A
C2183      C2191   1.387       .  A
C2183      C2200   1.410   1_545  A
C2184      C2199   1.410   1_545  A
C2184      C2192   1.387       .  A
C2185      C2197   1.420       .  A
C2185      C2193   1.387       .  A
C2186      C2200   1.416       .  A
C2186      C2194   1.384       .  A
C2187      C2195   1.387       .  A
C2187      C2198   1.411       .  A
C2188      C2196   1.386       .  A
C2188      C2199   1.410       .  A
C2189      C2190   1.379       .  A
C2189      H2201   1.082       .  S
C2190      H2202   1.082       .  S
C2191      C2192   1.374       .  A
C2191      H2203   1.083       .  S
C2192      H2204   1.082       .  S
C2193      C2194   1.378       .  A
C2193      H2205   1.082       .  S
C2194      H2206   1.082       .  S
C2195      C2196   1.373       .  A
C2195      H2207   1.082       .  S
C2196      H2208   1.082       .  S
C2197      C2357   1.502       .  S
C2198      C2349   1.491   1_565  S
C2199      C2333   1.483       .  S
C2200      C2317   1.490       .  S
N2211      C2216   1.355       .  A
N2211      C2215   1.353       .  A
N2211      H2243   1.040       .  S
N2212      C2219   1.353       .  A
N2212      C2220   1.353       .  A
N2213      C2218   1.355       .  A
N2213      C2217   1.355       .  A
N2213      H2244   1.041       .  S
N2214      C2221   1.351       .  A
N2214      C2222   1.350       .  A
C2215      C2223   1.389       .  A
C2215      C2231   1.417       .  A
C2216      C2232   1.416       .  A
C2216      C2224   1.385       .  A
C2217      C2225   1.386       .  A
C2217      C2234   1.419       .  A
C2218      C2233   1.419       .  A
C2218      C2226   1.387       .  A
C2219      C2231   1.416       .  A
C2219      C2227   1.386       .  A
C2220      C2234   1.417       .  A
C2220      C2228   1.386       .  A
C2221      C2229   1.386       .  A
C2221      C2232   1.413       .  A
C2222      C2230   1.386       .  A
C2222      C2233   1.412       .  A
C2223      C2224   1.374       .  A
C2223      H2235   1.080       .  S
C2224      H2236   1.082       .  S
C2225      C2226   1.378       .  A
C2225      H2237   1.082       .  S
C2226      H2238   1.082       .  S
C2227      C2228   1.373       .  A
C2227      H2239   1.081       .  S
C2228      H2240   1.082       .  S
C2229      C2230   1.375       .  A
C2229      H2241   1.082       .  S
C2230      H2242   1.082       .  S
C2231      C2269   1.487       .  S
C2232      C2301   1.495       .  S
C2233      C2285   1.493       .  S
C2234      C2245   1.502       .  S
C2245      C2594   1.407       .  A
C2245      C2250   1.410       .  A
C2246      C2593   1.407       .  A
C2246      C2247   1.399       .  A
C2246      H2255   1.083       .  S
C2247      C2248   1.402       .  A
C2247      H2256   1.083       .  S
C2248      C2254   1.408       .  A
C2248      C2597   1.414   1_554  A
C2249      C2596   1.414       .  A
C2249      C2251   1.403       .  A
C2249      C2250   1.408       .  A
C2250      H2257   1.084       .  S
C2251      C2252   1.400       .  A
C2251      H2258   1.084       .  S
C2252      C2253   1.407       .  A
C2252      H2259   1.083       .  S
C2253      C2602   1.407       .  A
C2254      C2601   1.407   1_554  A
C2254      H2260   1.084       .  S
C2261      C2262   1.402       .  A
C2261      C2614   1.401       .  A
C2262      C2263   1.398       .  A
C2262      H2271   1.084       .  S
C2263      C2264   1.403       .  A
C2263      H2272   1.084       .  S
C2264      C2270   1.404       .  A
C2264      C2613   1.415       .  A
C2265      C2612   1.415   1_554  A
C2265      C2267   1.402       .  A
C2265      C2266   1.403       .  A
C2266      C2609   1.401   1_554  A
C2266      H2273   1.085       .  S
C2267      C2268   1.397       .  A
C2267      H2274   1.084       .  S
C2268      C2617   1.404       .  A
C2268      H2275   1.083       .  S
C2269      C2616   1.404       .  A
C2269      C2270   1.405       .  A
C2270      H2276   1.084       .  S
C2277      C2626   1.405       .  A
C2277      C2282   1.408       .  A
C2278      C2625   1.405       .  A
C2278      C2279   1.395       .  A
C2278      H2287   1.078       .  S
C2279      C2280   1.398       .  A
C2279      H2288   1.084       .  S
C2280      C2286   1.404       .  A
C2280      C2281   1.415   1_554  A
C2281      C2631   1.403       .  A
C2281      C2630   1.411       .  A
C2282      C2629   1.411       .  A
C2282      H2289   1.084       .  S
C2283      C2629   1.403       .  A
C2283      C2284   1.400       .  A
C2283      H2290   1.083       .  S
C2284      C2285   1.407       .  A
C2284      H2291   1.083       .  S
C2285      C2634   1.403       .  A
C2286      C2633   1.403       .  A
C2286      H2292   1.085       .  S
C2293      C2294   1.405       .  A
C2293      C2646   1.407       .  A
C2294      C2295   1.397       .  A
C2294      H2303   1.083       .  S
C2295      C2296   1.401       .  A
C2295      H2304   1.084       .  S
C2296      C2302   1.404       .  A
C2296      C2645   1.414       .  A
C2297      C2644   1.414   1_554  A
C2297      C2299   1.403       .  A
C2297      C2298   1.408       .  A
C2298      C2641   1.407   1_554  A
C2298      H2305   1.084       .  S
C2299      C2300   1.400       .  A
C2299      H2306   1.083       .  S
C2300      C2649   1.406       .  A
C2300      H2307   1.083       .  S
C2301      C2648   1.406       .  A
C2301      C2302   1.406       .  A
C2302      H2308   1.084       .  S
C2309      C2314   1.405   1_545  A
C2310      C2311   1.396       .  A
C2310      H2319   1.084       .  S
C2311      C2312   1.400       .  A
C2311      H2320   1.084       .  S
C2312      C2318   1.407       .  A
C2312      C2313   1.417       .  A
C2314      H2321   1.084       .  S
C2315      C2316   1.399       .  A
C2315      H2322   1.083       .  S
C2316      C2317   1.406       .  A
C2316      H2323   1.083       .  S
C2318      H2324   1.084       .  S
C2325      C2330   1.402   1_545  A
C2326      C2327   1.394       .  A
C2326      H2335   1.084       .  S
C2327      C2328   1.400       .  A
C2327      H2336   1.084       .  S
C2328      C2334   1.400       .  A
C2328      C2329   1.416       .  A
C2330      H2337   1.084       .  S
C2331      C2332   1.396       .  A
C2331      H2338   1.084       .  S
C2332      C2333   1.404       .  A
C2332      H2339   1.083       .  S
C2334      H2340   1.085       .  S
C2341      C2342   1.403       .  A
C2342      C2343   1.396       .  A
C2342      H2351   1.076       .  S
C2343      C2344   1.400       .  A
C2343      H2352   1.084       .  S
C2344      C2350   1.405       .  A
C2345      C2347   1.401       .  A
C2345      C2346   1.406       .  A
C2346      H2353   1.084       .  S
C2347      C2348   1.397       .  A
C2347      H2354   1.084       .  S
C2348      H2355   1.083       .  S
C2349      C2350   1.404   1_545  A
C2350      H2356   1.084       .  S
C2357      C2358   1.407       .  A
C2358      C2359   1.400       .  A
C2358      H2367   1.083       .  S
C2359      C2360   1.403       .  A
C2359      H2368   1.083       .  S
C2360      C2366   1.412       .  A
C2361      C2363   1.403       .  A
C2361      C2362   1.412       .  A
C2362      H2369   1.084       .  S
C2363      C2364   1.401       .  A
C2363      H2370   1.084       .  S
C2364      H2371   1.083       .  S
C2365      C2366   1.408   1_545  A
C2366      H2372   1.084       .  S
C2373      C2374   1.406       .  A
C2374      C2375   1.398       .  A
C2374      H2383   1.083       .  S
C2375      C2376   1.402       .  A
C2375      H2384   1.084       .  S
C2376      C2382   1.407       .  A
C2377      C2379   1.400       .  A
C2377      C2378   1.404       .  A
C2378      H2385   1.084       .  S
C2379      C2380   1.396       .  A
C2379      H2386   1.084       .  S
C2380      H2387   1.083       .  S
C2381      C2382   1.406       .  A
C2382      H2388   1.084       .  S
C2389      C2394   1.407       .  A
C2390      C2391   1.397       .  A
C2390      H2399   1.083       .  S
C2391      C2392   1.401       .  A
C2391      H2400   1.084       .  S
C2392      C2398   1.405       .  A
C2393      C2395   1.402       .  A
C2393      C2394   1.406       .  A
C2394      H2401   1.084       .  S
C2395      C2396   1.397       .  A
C2395      H2402   1.084       .  S
C2396      C2397   1.405       .  A
C2396      H2403   1.083       .  S
C2398      H2404   1.085       .  S
C2405      C2406   1.404       .  A
C2406      C2407   1.394       .  A
C2406      H2415   1.084       .  S
C2407      C2408   1.399       .  A
C2407      H2416   1.084       .  S
C2408      C2414   1.403       .  A
C2409      C2411   1.402       .  A
C2409      C2410   1.407       .  A
C2410      H2417   1.084       .  S
C2411      C2412   1.397       .  A
C2411      H2418   1.084       .  S
C2412      H2419   1.083       .  S
C2413      C2414   1.400       .  A
C2414      H2420   1.084       .  S
C2421      C2426   1.405       .  A
C2422      C2423   1.398       .  A
C2422      H2431   1.083       .  S
C2423      C2424   1.403       .  A
C2423      H2432   1.083       .  S
C2424      C2430   1.407       .  A
C2425      C2427   1.401       .  A
C2425      C2426   1.404       .  A
C2426      H2433   1.084       .  S
C2427      C2428   1.397       .  A
C2427      H2434   1.084       .  S
C2428      C2429   1.407       .  A
C2428      H2435   1.083       .  S
C2430      H2436   1.084       .  S
N2437      C2442   1.353       .  A
N2437      C2441   1.348       .  A
N2437      H2469   1.042       .  S
N2438      C2445   1.352       .  A
N2438      C2446   1.352       .  A
N2439      C2444   1.355       .  A
N2439      C2443   1.354       .  A
N2439      H2470   1.041       .  S
N2440      C2447   1.350       .  A
N2440      C2448   1.347       .  A
C2441      C2449   1.386       .  A
C2441      C2457   1.407       .  A
C2442      C2458   1.412       .  A
C2442      C2450   1.387       .  A
C2443      C2451   1.387       .  A
C2443      C2460   1.418       .  A
C2444      C2459   1.419       .  A
C2444      C2452   1.387       .  A
C2445      C2457   1.411       .  A
C2445      C2453   1.384       .  A
C2446      C2460   1.417       .  A
C2446      C2454   1.388       .  A
C2447      C2455   1.385       .  A
C2447      C2458   1.410       .  A
C2448      C2456   1.387       .  A
C2448      C2459   1.410       .  A
C2449      C2450   1.376       .  A
C2449      H2461   1.083       .  S
C2450      H2462   1.082       .  S
C2451      C2452   1.378       .  A
C2451      H2463   1.082       .  S
C2452      H2464   1.082       .  S
C2453      C2454   1.377       .  A
C2453      H2465   1.082       .  S
C2454      H2466   1.082       .  S
C2455      C2456   1.375       .  A
C2455      H2467   1.082       .  S
C2456      H2468   1.082       .  S
C2457      C2761   1.481       .  S
C2458      C2769   1.490       .  S
C2459      C2721   1.491       .  S
C2460      C2737   1.496       .  S
O2471      C2482   1.294       .  A
O2472      C2483   1.294       .  A
O2473      C2484   1.292       .  A
O2474      C2485   1.292       .  A
O2474     Eu2479   2.470       .  S
O2475      C2485   1.290       .  A
O2476      C2484   1.298       .  A
O2477      C2483   1.286       .  A
O2477     Eu2479   2.427       .  S
O2478      C2482   1.288       .  A
Eu2479     O2480   2.340       .  S
C2482      C2777   1.480       .  S
C2483      C2753   1.467       .  S
C2484      C2713   1.491       .  S
C2485      C2689   1.475       .  S
H2486      O2487   0.967       .  S
H2488      O2489   0.964       .  S
O2490      C2513   1.292       .  A
O2490     Eu2506   2.464       .  S
O2491      C2514   1.291       .  A
O2491     Eu2507   2.458   1_556  S
O2492      C2515   1.294       .  A
O2492     Eu2508   2.474       .  S
O2493      C2516   1.292       .  A
O2493     Eu2509   2.459   1_565  S
O2494      C2517   1.293       .  A
O2495      C2518   1.293       .  A
O2496      C2519   1.286       .  A
O2497      C2520   1.286       .  A
O2497     Eu2510   2.430       .  S
O2498      C2519   1.298   1_565  A
O2498     Eu2508   2.501       .  S
O2499      C2520   1.292       .  A
O2499     Eu2509   2.467       .  S
O2500      C2515   1.293       .  A
O2501      C2518   1.290   1_554  A
O2502      C2517   1.293       .  A
O2502     Eu2507   2.465   1_556  S
O2503      C2516   1.294       .  A
O2503     Eu2506   2.479       .  S
O2504      C2513   1.291       .  A
O2504     Eu2510   2.455   1_565  S
O2505      C2514   1.292       .  A
Eu2506     O2524   2.367       .  S
Eu2507     O2511   2.355   1_554  S
Eu2508     O2512   2.357       .  S
Eu2509     O2524   2.352   1_545  S
Eu2510     O2524   2.356   1_545  S
C2513      C2745   1.477       .  S
C2514      C2729   1.480       .  S
C2515      C2601   1.486       .  S
C2516      C2625   1.485   1_556  S
C2517      C2641   1.480       .  S
C2518      C2609   1.465       .  S
C2519      C2657   1.479       .  S
C2520      C2673   1.469       .  S
H2521      O2522   0.965       .  S
H2523      O2524   0.965       .  S
N2525      C2530   1.356   1_565  A
N2525      C2529   1.355   1_565  A
N2525      H2557   1.040       .  S
N2526      C2533   1.354       .  A
N2526      C2534   1.355       .  A
N2527      C2532   1.351   1_565  A
N2527      C2531   1.350   1_565  A
N2527      H2558   1.041       .  S
N2528      C2535   1.349       .  A
N2528      C2536   1.350       .  A
C2529      C2537   1.388       .  A
C2529      C2545   1.422   1_545  A
C2530      C2546   1.420   1_545  A
C2530      C2538   1.386       .  A
C2531      C2539   1.387       .  A
C2531      C2548   1.410   1_545  A
C2532      C2547   1.410   1_545  A
C2532      C2540   1.387       .  A
C2533      C2545   1.420       .  A
C2533      C2541   1.387       .  A
C2534      C2548   1.416       .  A
C2534      C2542   1.384       .  A
C2535      C2543   1.387       .  A
C2535      C2546   1.411       .  A
C2536      C2544   1.386       .  A
C2536      C2547   1.410       .  A
C2537      C2538   1.379       .  A
C2537      H2549   1.082       .  S
C2538      H2550   1.082       .  S
C2539      C2540   1.374       .  A
C2539      H2551   1.083       .  S
C2540      H2552   1.082       .  S
C2541      C2542   1.378       .  A
C2541      H2553   1.082       .  S
C2542      H2554   1.082       .  S
C2543      C2544   1.373       .  A
C2543      H2555   1.082       .  S
C2544      H2556   1.082       .  S
C2545      C2705   1.502       .  S
C2546      C2697   1.491   1_565  S
C2547      C2681   1.483       .  S
C2548      C2665   1.490       .  S
N2559      C2564   1.355       .  A
N2559      C2563   1.353       .  A
N2559      H2591   1.040       .  S
N2560      C2567   1.353       .  A
N2560      C2568   1.353       .  A
N2561      C2566   1.355   1_554  A
N2561      C2565   1.355   1_554  A
N2561      H2592   1.041       .  S
N2562      C2569   1.351       .  A
N2562      C2570   1.350       .  A
C2563      C2571   1.389   1_554  A
C2563      C2579   1.417       .  A
C2564      C2580   1.416       .  A
C2564      C2572   1.385   1_554  A
C2565      C2573   1.386       .  A
C2565      C2582   1.419   1_556  A
C2566      C2581   1.419   1_556  A
C2566      C2574   1.387       .  A
C2567      C2579   1.416       .  A
C2567      C2575   1.387       .  A
C2568      C2582   1.417       .  A
C2568      C2576   1.386       .  A
C2569      C2577   1.386       .  A
C2569      C2580   1.413       .  A
C2570      C2578   1.386       .  A
C2570      C2581   1.412       .  A
C2571      C2572   1.374       .  A
C2571      H2583   1.080       .  S
C2572      H2584   1.082       .  S
C2573      C2574   1.378       .  A
C2573      H2585   1.082       .  S
C2574      H2586   1.082       .  S
C2575      C2576   1.373       .  A
C2575      H2587   1.081       .  S
C2576      H2588   1.082       .  S
C2577      C2578   1.375       .  A
C2577      H2589   1.082       .  S
C2578      H2590   1.082       .  S
C2579      C2617   1.487       .  S
C2580      C2649   1.495       .  S
C2581      C2633   1.493       .  S
C2582      C2593   1.502       .  S
C2593      C2598   1.410   1_554  A
C2594      C2595   1.399       .  A
C2594      H2603   1.083       .  S
C2595      C2596   1.402       .  A
C2595      H2604   1.083       .  S
C2596      C2602   1.408       .  A
C2597      C2599   1.403       .  A
C2597      C2598   1.408       .  A
C2598      H2605   1.084       .  S
C2599      C2600   1.400       .  A
C2599      H2606   1.084       .  S
C2600      C2601   1.407       .  A
C2600      H2607   1.083       .  S
C2602      H2608   1.084       .  S
C2609      C2610   1.402       .  A
C2610      C2611   1.398       .  A
C2610      H2619   1.084       .  S
C2611      C2612   1.403       .  A
C2611      H2620   1.084       .  S
C2612      C2618   1.403       .  A
C2613      C2615   1.402       .  A
C2613      C2614   1.403       .  A
C2614      H2621   1.085       .  S
C2615      C2616   1.397       .  A
C2615      H2622   1.084       .  S
C2616      H2623   1.083       .  S
C2617      C2618   1.405   1_554  A
C2618      H2624   1.084       .  S
C2625      C2630   1.408   1_554  A
C2626      C2627   1.395       .  A
C2626      H2635   1.078       .  S
C2627      C2628   1.398       .  A
C2627      H2636   1.084       .  S
C2628      C2634   1.404       .  A
C2628      C2629   1.415       .  A
C2630      H2637   1.084       .  S
C2631      C2632   1.400       .  A
C2631      H2638   1.083       .  S
C2632      C2633   1.407   1_556  A
C2632      H2639   1.083       .  S
C2634      H2640   1.085       .  S
C2641      C2642   1.405       .  A
C2642      C2643   1.397       .  A
C2642      H2651   1.083       .  S
C2643      C2644   1.401       .  A
C2643      H2652   1.084       .  S
C2644      C2650   1.404       .  A
C2645      C2647   1.403       .  A
C2645      C2646   1.408       .  A
C2646      H2653   1.084       .  S
C2647      C2648   1.400       .  A
C2647      H2654   1.083       .  S
C2648      H2655   1.083       .  S
C2649      C2650   1.406   1_554  A
C2650      H2656   1.084       .  S
C2657      C2662   1.405   1_545  A
C2658      C2659   1.396       .  A
C2658      H2667   1.084       .  S
C2659      C2660   1.400       .  A
C2659      H2668   1.084       .  S
C2660      C2666   1.407       .  A
C2660      C2661   1.417       .  A
C2662      H2669   1.084       .  S
C2663      C2664   1.399       .  A
C2663      H2670   1.083       .  S
C2664      C2665   1.406       .  A
C2664      H2671   1.083       .  S
C2666      H2672   1.084       .  S
C2673      C2678   1.402   1_545  A
C2674      C2675   1.394       .  A
C2674      H2683   1.084       .  S
C2675      C2676   1.400       .  A
C2675      H2684   1.084       .  S
C2676      C2682   1.399       .  A
C2676      C2677   1.416       .  A
C2678      H2685   1.084       .  S
C2679      C2680   1.396       .  A
C2679      H2686   1.084       .  S
C2680      C2681   1.404       .  A
C2680      H2687   1.083       .  S
C2682      H2688   1.085       .  S
C2689      C2690   1.403       .  A
C2690      C2691   1.396       .  A
C2690      H2699   1.076       .  S
C2691      C2692   1.400       .  A
C2691      H2700   1.084       .  S
C2692      C2698   1.405       .  A
C2693      C2695   1.401       .  A
C2693      C2694   1.406       .  A
C2694      H2701   1.084       .  S
C2695      C2696   1.397       .  A
C2695      H2702   1.084       .  S
C2696      H2703   1.083       .  S
C2697      C2698   1.404   1_545  A
C2698      H2704   1.084       .  S
C2705      C2706   1.407       .  A
C2706      C2707   1.400       .  A
C2706      H2715   1.083       .  S
C2707      C2708   1.403       .  A
C2707      H2716   1.083       .  S
C2708      C2714   1.412       .  A
C2709      C2711   1.403       .  A
C2709      C2710   1.412       .  A
C2710      H2717   1.084       .  S
C2711      C2712   1.401       .  A
C2711      H2718   1.084       .  S
C2712      H2719   1.083       .  S
C2713      C2714   1.408   1_545  A
C2714      H2720   1.084       .  S
C2721      C2722   1.406       .  A
C2722      C2723   1.398       .  A
C2722      H2731   1.083       .  S
C2723      C2724   1.402       .  A
C2723      H2732   1.084       .  S
C2724      C2730   1.407       .  A
C2725      C2727   1.400       .  A
C2725      C2726   1.404       .  A
C2726      H2733   1.084       .  S
C2727      C2728   1.396       .  A
C2727      H2734   1.084       .  S
C2728      H2735   1.083       .  S
C2729      C2730   1.406       .  A
C2730      H2736   1.084       .  S
C2737      C2742   1.407       .  A
C2738      C2739   1.397       .  A
C2738      H2747   1.083       .  S
C2739      C2740   1.401       .  A
C2739      H2748   1.084       .  S
C2740      C2746   1.405       .  A
C2741      C2743   1.402       .  A
C2741      C2742   1.406       .  A
C2742      H2749   1.084       .  S
C2743      C2744   1.397       .  A
C2743      H2750   1.084       .  S
C2744      C2745   1.405       .  A
C2744      H2751   1.083       .  S
C2746      H2752   1.085       .  S
C2753      C2754   1.403       .  A
C2754      C2755   1.394       .  A
C2754      H2763   1.084       .  S
C2755      C2756   1.399       .  A
C2755      H2764   1.084       .  S
C2756      C2762   1.403       .  A
C2757      C2759   1.402       .  A
C2757      C2758   1.407       .  A
C2758      H2765   1.084       .  S
C2759      C2760   1.397       .  A
C2759      H2766   1.084       .  S
C2760      H2767   1.083       .  S
C2761      C2762   1.400       .  A
C2762      H2768   1.084       .  S
C2769      C2774   1.405       .  A
C2770      C2771   1.398       .  A
C2770      H2779   1.083       .  S
C2771      C2772   1.403       .  A
C2771      H2780   1.083       .  S
C2772      C2778   1.407       .  A
C2773      C2775   1.401       .  A
C2773      C2774   1.404       .  A
C2774      H2781   1.084       .  S
C2775      C2776   1.397       .  A
C2775      H2782   1.084       .  S
C2776      C2777   1.407       .  A
C2776      H2783   1.083       .  S
C2778      H2784   1.084       .  S
