geometry optimzed in LAMMPS
_audit_creation_date              2020-11-30 
_audit_creation_method            'lammps2cif' 
_symmetry_space_group_name_H-M    'P1' 
_symmetry_Int_Tables_number       1 
_symmetry_cell_setting            triclinic 
loop_ 
_symmetry_equiv_pos_as_xyz 
  x,y,z 
_cell_length_a                    45.27672121 
_cell_length_b                    41.968403759357415 
_cell_length_c                    48.077368246131904 
_cell_angle_alpha                 90.02187793790168 
_cell_angle_beta                  89.01006183988063 
_cell_angle_gamma                 90.33183093497126 
loop_ 
_atom_site_label 
_atom_site_type_symbol 
_atom_site_fract_x 
_atom_site_fract_y 
_atom_site_fract_z 
_atom_site_charge 
C1          C  0.77353159  0.24772588  0.12428131    -0.03900
C2          C  0.77805118  0.24919935  0.37528969    -0.03900
Fe3        Fe  0.79374798  0.37821719  0.24615190     1.65800
Fe4        Fe  0.84088201  0.43949141  0.24511769     1.73200
Fe5        Fe  0.86731536  0.36351603  0.24649303     1.54400
O6          O  0.84994166  0.34041266  0.28161671    -0.83100
O7          O  0.87836668  0.43608022  0.22043571    -0.81400
O8          O  0.80266950  0.33931726  0.27034867    -0.85600
O9          O  0.80247416  0.35317776  0.21073928    -0.80500
O10         O  0.89212553  0.39229096  0.27301652    -0.82300
O11         O  0.81595239  0.44500970  0.20973599    -0.85000
C12         C  0.82300375  0.33378940  0.20459836     0.95800
C13         C  0.82346445  0.33149186  0.28621187     1.03200
O14         O  0.83430728  0.39372220  0.24591085    -1.14000
O15         O  0.80473673  0.44918954  0.27131150    -0.76400
O16         O  0.78353172  0.40278614  0.28212607    -0.79900
O17         O  0.84654446  0.33161340  0.21879360    -0.80600
C18         C  0.78743677  0.43229922  0.28654062     0.94700
O19         O  0.77745841  0.41462747  0.22154829    -0.78600
O20         O  0.86682472  0.43743050  0.27941175    -0.83700
C21         C  0.89360581  0.41437748  0.20884012     0.97300
C22         C  0.88875008  0.41962617  0.28421314     1.03200
O23         O  0.88847408  0.38481638  0.21248624    -0.79400
C24         C  0.78946956  0.43599873  0.20645767     1.01500
Fe25       Fe  0.79366048  0.11668756  0.99274515     1.65800
Fe26       Fe  0.84182868  0.05797223  0.49334496     1.73200
Fe27       Fe  0.86788931  0.13433864  0.50019319     1.54400
O28         O  0.85491751  0.16164225  0.46602492    -0.83100
O29         O  0.87599418  0.05836999  0.02074761    -0.81400
O30         O  0.80596138  0.15453349  0.46579624    -0.85600
O31         O  0.79804609  0.14492096  0.02711460    -0.80500
O32         O  0.89588780  0.10859645  0.47396484    -0.82300
O33         O  0.81388979  0.04778652  0.02698061    -0.85000
C34         C  0.81826218  0.16165808  0.03789638     0.95800
C35         C  0.82951947  0.16695215  0.45604348     1.03200
O36         O  0.83463174  0.10387410  0.49531122    -1.14000
O37         O  0.81015756  0.04841056  0.46391966    -0.76400
O38         O  0.78439446  0.09241159  0.45772532    -0.79900
O39         O  0.84474381  0.16152528  0.02859940    -0.80600
C40         C  0.79103653  0.06422862  0.45092106     0.94700
O41         O  0.77720752  0.08167383  0.01937499    -0.78600
O42         O  0.87230544  0.06380125  0.46171413    -0.83700
C43         C  0.88953962  0.07845276  0.03549906     0.97300
C44         C  0.89420909  0.08278583  0.46021491     1.03200
O45         O  0.88533426  0.10828083  0.03326403    -0.79400
C46         C  0.78854501  0.05893111  0.03295529     1.01500
C47         C  0.97655568  0.47695777  0.35571235     0.85000
C48         C  0.99700986  0.50155538  0.34152288    -0.55200
C49         C  0.01416650  0.01776996  0.35720989     0.08000
C50         C  0.00882484  0.01188693  0.38846433     0.18900
C51         C  0.99740000  0.45703332  0.37377883    -0.55900
C52         C  0.01380483  0.47473246  0.39201735     0.08100
C53         C  0.95809833  0.49605375  0.37659288    -0.55500
C54         C  0.97531606  0.01624944  0.39234183     0.08600
H55         H  0.99913863  0.99995462  0.31785737     0.13100
H56         H  0.02196761  0.02775745  0.40202039    -0.01100
H57         H  0.00011789  0.43156393  0.37164043     0.13500
H58         H  0.93492870  0.99721724  0.37640909     0.13200
Fe59       Fe  0.19795368  0.38071378  0.00396224     1.65800
Fe60       Fe  0.15162535  0.44287005  0.00269945     1.73200
Fe61       Fe  0.12387069  0.36695363  0.00280761     1.54400
O62         O  0.14169003  0.34298148  0.46733566    -0.83100
O63         O  0.11663271  0.43985230  0.03030797    -0.81400
O64         O  0.18910422  0.34289648  0.47848233    -0.85600
O65         O  0.18797551  0.35530910  0.03891684    -0.80500
O66         O  0.09920996  0.39401089  0.47557011    -0.82300
O67         O  0.17782832  0.45053953  0.03640001    -0.85000
C68         C  0.16707694  0.33615118  0.04477828     0.95800
C69         C  0.16831343  0.33503321  0.46251561     1.03200
O70         O  0.15766036  0.39693823  0.00304001    -1.14000
O71         O  0.18607559  0.45178809  0.47687456    -0.76400
O72         O  0.21027138  0.40636859  0.46974707    -0.79900
O73         O  0.14375956  0.33436415  0.03027730    -0.80600
C74         C  0.20568978  0.43544152  0.46415075     0.94700
O75         O  0.21414115  0.41611909  0.02933275    -0.78600
O76         O  0.12380251  0.43986045  0.47057584    -0.83700
C77         C  0.10199997  0.41825591  0.04298414     0.97300
C78         C  0.10253235  0.42147663  0.46455568     1.03200
O79         O  0.10412116  0.38874101  0.03712395    -0.79400
C80         C  0.20315023  0.43994349  0.04182060     1.01500
Fe81       Fe  0.19861384  0.12112522  0.25481811     1.65800
Fe82       Fe  0.15137364  0.05904093  0.25549009     1.73200
Fe83       Fe  0.12436929  0.13529238  0.25296300     1.54400
O84         O  0.14357545  0.16771497  0.28116954    -0.83100
O85         O  0.12412591  0.06024664  0.22204927    -0.81400
O86         O  0.18896462  0.14929192  0.28816260    -0.85600
O87         O  0.19028668  0.15687955  0.22720719    -0.80500
O88         O  0.10266618  0.11395691  0.28658563    -0.82300
O89         O  0.18626055  0.04869180  0.22844167    -0.85000
C90         C  0.16900013  0.16633940  0.21262917     0.95800
C91         C  0.16763115  0.16737916  0.29464592     1.03200
O92         O  0.15794653  0.10515977  0.25431474    -1.14000
O93         O  0.17718167  0.05279359  0.28960193    -0.76400
O94         O  0.21359699  0.08750769  0.28230717    -0.79900
O95         O  0.14229124  0.15911682  0.21840571    -0.80600
C96         C  0.20236679  0.06394931  0.29517993     0.94700
O97         O  0.21167650  0.09360371  0.22156072    -0.78600
O98         O  0.11626577  0.06306237  0.28259733    -0.83700
C99         C  0.10325278  0.07861163  0.21543510     0.97300
C100        C  0.10077085  0.08481939  0.29370128     1.03200
O101        O  0.10029565  0.10646052  0.22575442    -0.79400
C102        C  0.20648507  0.06458319  0.21599532     1.01500
C103        C  0.21660249  0.25450158  0.37470308    -0.03900
C104        C  0.21483714  0.24939555  0.12483278    -0.03900
C105        C  0.97546983  0.02105968  0.10909491     0.85000
C106        C  0.95840315  0.99911361  0.12909566    -0.55200
C107        C  0.97438633  0.48228896  0.13971175     0.08000
C108        C  0.00786462  0.48851673  0.13736950     0.18900
C109        C  0.99567498  0.04099473  0.12794519    -0.55900
C110        C  0.01339894  0.02319031  0.14476760     0.08100
C111        C  0.99674915  0.99892374  0.09316939    -0.55500
C112        C  0.01495238  0.48415999  0.10625818     0.08600
H113        H  0.93415311  0.49959070  0.12241300     0.13100
H114        H  0.02080405  0.47277044  0.15104626    -0.01100
H115        H  0.99705125  0.06670527  0.12731017     0.13500
H116        H  0.99801544  0.99769203  0.07060418     0.13200
Fe117      Fe  0.29319091  0.37204856  0.24525667     1.65800
Fe118      Fe  0.33897879  0.31066028  0.24615019     1.73200
Fe119      Fe  0.36690219  0.38601053  0.24677400     1.54400
O120        O  0.34730931  0.41818546  0.21880449    -0.83100
O121        O  0.36188952  0.31405964  0.28199562    -0.81400
O122        O  0.30313608  0.39680998  0.20994083    -0.85600
O123        O  0.30232462  0.41099912  0.26964955    -0.80500
O124        O  0.38812551  0.36412630  0.21322244    -0.82300
O125        O  0.30117599  0.30085924  0.26979948    -0.85000
C126        C  0.32300499  0.41801947  0.28606731     0.95800
C127        C  0.32400037  0.41617383  0.20423978     1.03200
O128        O  0.33327159  0.35634283  0.24589177    -1.14000
O129        O  0.31621956  0.30480886  0.20983194    -0.76400
O130        O  0.27775147  0.33520994  0.22072401    -0.79900
O131        O  0.34941278  0.40913049  0.28161842    -0.80600
C132        C  0.28968161  0.31323585  0.20633915     0.94700
O133        O  0.28131603  0.34750961  0.28081165    -0.78600
O134        O  0.37812601  0.31349197  0.22387993    -0.83700
C135        C  0.38504074  0.33043332  0.28605325     0.97300
C136        C  0.39393865  0.33453311  0.21176691     1.03200
O137        O  0.39041181  0.35677694  0.27366314    -0.79400
C138        C  0.28376498  0.31772160  0.28459174     1.01500
Fe139      Fe  0.29247274  0.13162147  0.49693690     1.65800
Fe140      Fe  0.33945088  0.19359114  0.99748068     1.73200
Fe141      Fe  0.36546005  0.11729421  0.99978303     1.54400
O142        O  0.34692014  0.09395301  0.03406994    -0.83100
O143        O  0.37853720  0.18804911  0.47448038    -0.81400
O144        O  0.29951901  0.09463958  0.02296085    -0.85600
O145        O  0.30243627  0.10550047  0.46250003    -0.80500
O146        O  0.38909157  0.14592643  0.02723213    -0.82300
O147        O  0.31683715  0.19874182  0.46123246    -0.85000
C148        C  0.32299580  0.08585672  0.45725920     0.95800
C149        C  0.32024760  0.08574817  0.03855166     1.03200
O150        O  0.33252688  0.14775365  0.99800503    -1.14000
O151        O  0.30236434  0.20428831  0.02180459    -0.76400
O152        O  0.27979411  0.15833329  0.03133870    -0.79900
O153        O  0.34602885  0.08379730  0.47209184    -0.80600
C154        C  0.28346969  0.18789025  0.03556081     0.94700
O155        O  0.27815101  0.16786751  0.47115822    -0.78600
O156        O  0.36321452  0.19070289  0.03301280    -0.83700
C157        C  0.39376705  0.16618585  0.46310311     0.97300
C158        C  0.38488537  0.17295688  0.03871421     1.03200
O159        O  0.38806703  0.13671635  0.46642122    -0.79400
C160        C  0.29035409  0.19011617  0.45712399     1.01500
C161        C  0.27411639  0.99909781  0.37746713    -0.03900
C162        C  0.27517872  0.00244058  0.12684653    -0.03900
C163        C  0.47269394  0.27010525  0.35483614     0.85000
C164        C  0.45607293  0.24870555  0.37563767    -0.55200
C165        C  0.47375892  0.23032771  0.39141335     0.08000
C166        C  0.50692431  0.23566886  0.38590499     0.18900
C167        C  0.49390478  0.28988413  0.37284157    -0.55900
C168        C  0.51191953  0.27205669  0.38929137     0.08100
C169        C  0.49289362  0.24742278  0.33833872    -0.55500
C170        C  0.51077137  0.22942202  0.35452808     0.08600
H171        H  0.43211474  0.24766707  0.37742965     0.13100
H172        H  0.52084997  0.22032725  0.39902961    -0.01100
H173        H  0.49537898  0.31555919  0.37230205     0.13500
H174        H  0.49334250  0.24610829  0.31576330     0.13200
C175        C  0.71432492  0.99790599  0.37297608    -0.03900
Fe176      Fe  0.69778741  0.12850681  0.25359897     1.65800
Fe177      Fe  0.65103718  0.19149774  0.25495318     1.73200
Fe178      Fe  0.62291918  0.11526405  0.24913789     1.54400
O179        O  0.64272353  0.08872207  0.21700096    -0.83100
O180        O  0.61919274  0.18634752  0.28525452    -0.81400
O181        O  0.69075419  0.09822879  0.22126712    -0.85600
O182        O  0.68667945  0.09478823  0.28330398    -0.80500
O183        O  0.60282226  0.14231982  0.21861240    -0.82300
O184        O  0.68097992  0.19867486  0.28608684    -0.85000
C185        C  0.66332914  0.08039169  0.29132415     0.95800
C186        C  0.66936996  0.08563498  0.20869169     1.03200
O187        O  0.65714636  0.14508005  0.25259441    -1.14000
O188        O  0.68244231  0.20170975  0.22460771    -0.76400
O189        O  0.71335375  0.16061471  0.22425581    -0.79900
O190        O  0.63835636  0.08476930  0.28017000    -0.80600
C191        C  0.70524608  0.18757822  0.21525897     0.94700
O192        O  0.71128439  0.15727966  0.28539209    -0.78600
O193        O  0.61991058  0.19167201  0.22444763    -0.83700
C194        C  0.59969574  0.16564802  0.29147949     0.97300
C195        C  0.60311866  0.17183711  0.21258085     1.03200
O196        O  0.59812552  0.13852731  0.27973872    -0.79400
C197        C  0.70319311  0.18392518  0.29498321     1.01500
C198        C  0.71908888  0.00131911  0.12539142    -0.03900
Fe199      Fe  0.69877808  0.37003906  0.00039655     1.65800
Fe200      Fe  0.65175697  0.30719342  0.00118559     1.73200
Fe201      Fe  0.62434520  0.38286612  0.99972807     1.54400
O202        O  0.64381049  0.41513663  0.02812429    -0.83100
O203        O  0.62311748  0.30897938  0.46648288    -0.81400
O204        O  0.68958213  0.39760175  0.03472958    -0.85600
O205        O  0.68755258  0.40728243  0.47070233    -0.80500
O206        O  0.60338593  0.36110300  0.03349356    -0.82300
O207        O  0.68568856  0.29820972  0.47287105    -0.85000
C208        C  0.66493834  0.41676202  0.45788009     0.95800
C209        C  0.66793523  0.41513129  0.04159034     1.03200
O210        O  0.65817703  0.35336554  0.00031761    -1.14000
O211        O  0.67778961  0.30110474  0.03508588    -0.76400
O212        O  0.71430135  0.33571324  0.02741816    -0.79900
O213        O  0.63887424  0.40814294  0.46462657    -0.80600
C214        C  0.70306401  0.31217946  0.04046756     0.94700
O215        O  0.70983248  0.34367843  0.46480805    -0.78600
O216        O  0.61660965  0.31026744  0.02856661    -0.83700
C217        C  0.60178356  0.32707298  0.46049709     0.97300
C218        C  0.60137844  0.33187588  0.04024381     1.03200
O219        O  0.59838889  0.35452203  0.47157041    -0.79400
C220        C  0.70558756  0.31425255  0.46012331     1.01500
C221        C  0.47443935  0.23025660  0.10840541     0.85000
C222        C  0.49408516  0.25352009  0.09164098    -0.55200
C223        C  0.51297053  0.27098861  0.10744870     0.08000
C224        C  0.51039713  0.26398652  0.13877559     0.18900
C225        C  0.49633684  0.21004864  0.12494375    -0.55900
C226        C  0.51524973  0.22750737  0.14103470     0.08100
C227        C  0.45900654  0.25080605  0.13041948    -0.55500
C228        C  0.47746334  0.26896555  0.14576038     0.08600
H229        H  0.49384172  0.25514380  0.06909067     0.13100
H230        H  0.52512313  0.27896096  0.15161347    -0.01100
H231        H  0.49746187  0.18439000  0.12374199     0.13500
H232        H  0.43512936  0.25183453  0.13307984     0.13200
C233        C  0.55085696  0.33281626  0.06203593    -0.14800
C234        C  0.57997245  0.32148206  0.06184379     0.07400
C235        C  0.58732828  0.29616962  0.07949762    -0.14800
C236        C  0.56566092  0.28127851  0.09594566    -0.14800
C237        C  0.53624260  0.29113135  0.09468837     0.07400
C238        C  0.52898544  0.31738951  0.07811301    -0.14800
H239        H  0.54463744  0.35197660  0.04827515     0.11300
H240        H  0.60961977  0.28690779  0.07952430     0.11300
H241        H  0.57151010  0.26061978  0.10808438     0.11300
H242        H  0.50624166  0.32501253  0.07673806     0.11300
C243        C  0.67529451  0.48893265  0.08702761    -0.14800
C244        C  0.69464208  0.47795793  0.10787355     0.07400
C245        C  0.69617283  0.44441062  0.11072566    -0.14800
C246        C  0.68622453  0.42402593  0.08972498    -0.14800
C247        C  0.67203242  0.43607452  0.06628426     0.07400
C248        C  0.66474852  0.46846052  0.06612720    -0.14800
H249        H  0.66874679  0.51348502  0.08612305     0.11300
H250        H  0.70613794  0.43329274  0.12840488     0.11300
H251        H  0.69049220  0.39872525  0.09139800     0.11300
H252        H  0.65234860  0.47828657  0.04911851     0.11300
C253        C  0.58580704  0.21564885  0.18157912    -0.14800
C254        C  0.58221712  0.18448549  0.19193556     0.07400
C255        C  0.55696480  0.16709101  0.18461334    -0.14800
C256        C  0.53532689  0.18095288  0.16814220    -0.14800
C257        C  0.53856601  0.21244542  0.15824674     0.07400
C258        C  0.56430943  0.22941396  0.16496802    -0.14800
H259        H  0.60507506  0.22972770  0.18674170     0.11300
H260        H  0.55331317  0.14321934  0.19254792     0.11300
H261        H  0.51563933  0.16716167  0.16401064     0.11300
H262        H  0.56804123  0.25341537  0.15754380     0.11300
C263        C  0.70296602  0.07591739  0.16844905    -0.14800
C264        C  0.67709779  0.06737264  0.18320426     0.07400
C265        C  0.66155567  0.04000869  0.17503095    -0.14800
C266        C  0.67340187  0.01992269  0.15426030    -0.14800
C267        C  0.70079179  0.02716512  0.14088782     0.07400
C268        C  0.71471568  0.05617730  0.14790835    -0.14800
H269        H  0.71526049  0.09716657  0.17396923     0.11300
H270        H  0.64156982  0.03286920  0.18610284     0.11300
H271        H  0.66229895  0.99751126  0.15035885     0.11300
H272        H  0.73610933  0.06259388  0.13916373     0.11300
C273        C  0.68485867  0.00532938  0.32764773    -0.14800
C274        C  0.69253460  0.01695127  0.35435119     0.07400
C275        C  0.68044154  0.04659822  0.36218670    -0.14800
C276        C  0.66876742  0.06706763  0.34194848    -0.14800
C277        C  0.66638570  0.05703321  0.31414919     0.07400
C278        C  0.67271762  0.02534909  0.30766067    -0.14800
H279        H  0.69043124  0.98134943  0.32125389     0.11300
H280        H  0.68243411  0.05517345  0.38330171     0.11300
H281        H  0.66316991  0.09128445  0.34765847     0.11300
H282        H  0.67033880  0.01672398  0.28657021     0.11300
C283        C  0.67003288  0.42901802  0.40676788    -0.14800
C284        C  0.66982725  0.43925809  0.43462416     0.07400
C285        C  0.67831717  0.47049934  0.44051739    -0.14800
C286        C  0.68971489  0.49010091  0.41947354    -0.14800
C287        C  0.69509248  0.47825894  0.39220571     0.07400
C288        C  0.68172536  0.44881662  0.38555772    -0.14800
H289        H  0.66265656  0.40516996  0.40164217     0.11300
H290        H  0.67741347  0.47929644  0.46170549     0.11300
H291        H  0.69638360  0.51397590  0.42523894     0.11300
H292        H  0.68210020  0.44013585  0.36436399     0.11300
C293        C  0.56289571  0.21278664  0.34825578    -0.14800
C294        C  0.53307389  0.20780467  0.34240970     0.07400
C295        C  0.52520299  0.18485475  0.32254953    -0.14800
C296        C  0.54711560  0.16833968  0.30765221    -0.14800
C297        C  0.57705980  0.17518808  0.31211281     0.07400
C298        C  0.58472525  0.19668945  0.33320603    -0.14800
H299        H  0.56945275  0.23097451  0.36280276     0.11300
H300        H  0.50220035  0.18083494  0.31771669     0.11300
H301        H  0.54069322  0.15222814  0.29119280     0.11300
H302        H  0.60767855  0.20256513  0.33681945     0.11300
C303        C  0.53210685  0.31808983  0.41772065    -0.14800
C304        C  0.53487682  0.28667438  0.40750489     0.07400
C305        C  0.56016244  0.26943150  0.41448310    -0.14800
C306        C  0.58218183  0.28313598  0.43063245    -0.14800
C307        C  0.57945459  0.31440720  0.44090259     0.07400
C308        C  0.55409564  0.33175783  0.43422795    -0.14800
H309        H  0.51267329  0.33204566  0.41355727     0.11300
H310        H  0.56329797  0.24523926  0.40756306     0.11300
H311        H  0.60117804  0.26876291  0.43555444     0.11300
H312        H  0.55096721  0.35567474  0.44215711     0.11300
C313        C  0.43689264  0.20182043  0.45647173    -0.14800
C314        C  0.41949977  0.17662990  0.44635369     0.07400
C315        C  0.42472860  0.16513527  0.41936002    -0.14800
C316        C  0.44505040  0.18093018  0.40181870    -0.14800
C317        C  0.46070565  0.20768260  0.41145150     0.07400
C318        C  0.45748270  0.21713142  0.43917014    -0.14800
H319        H  0.43329347  0.21085278  0.47737053     0.11300
H320        H  0.41145387  0.14585203  0.41118106     0.11300
H321        H  0.44698655  0.17381352  0.38020557     0.11300
H322        H  0.46899003  0.23804942  0.44670375     0.11300
C323        C  0.40820564  0.21890223  0.06220042    -0.14800
C324        C  0.40700319  0.18586104  0.05793539     0.07400
C325        C  0.42856979  0.16654845  0.06992067    -0.14800
C326        C  0.45070127  0.18012847  0.08625492    -0.14800
C327        C  0.45190716  0.21340868  0.09039405     0.07400
C328        C  0.43054496  0.23243718  0.07771739    -0.14800
H329        H  0.39235430  0.23463504  0.05277572     0.11300
H330        H  0.42839130  0.14102766  0.06658161     0.11300
H331        H  0.46670880  0.16432355  0.09507168     0.11300
H332        H  0.43098925  0.25810931  0.08012521     0.11300
C333        C  0.30101586  0.07655752  0.41161812    -0.14800
C334        C  0.31857001  0.06493131  0.43291759     0.07400
C335        C  0.32699025  0.03276874  0.43232154    -0.14800
C336        C  0.31528377  0.01203250  0.41217553    -0.14800
C337        C  0.29465871  0.02302381  0.39260702     0.07400
C338        C  0.28884752  0.05613674  0.39228331    -0.14800
H339        H  0.29447809  0.10136724  0.41128230     0.11300
H340        H  0.34058942  0.02318695  0.44858958     0.11300
H341        H  0.32017070  0.98685667  0.41345802     0.11300
H342        H  0.27261396  0.06674509  0.37909115     0.11300
C343        C  0.33094159  0.04513645  0.07650623    -0.14800
C344        C  0.31165489  0.06618086  0.06311034     0.07400
C345        C  0.28252015  0.06858114  0.07304499    -0.14800
C346        C  0.27228172  0.04950944  0.09460020    -0.14800
C347        C  0.29065784  0.02706835  0.10751891     0.07400
C348        C  0.32048335  0.02551106  0.09846969    -0.14800
H349        H  0.35362328  0.04294807  0.06929623     0.11300
H350        H  0.26714447  0.08496240  0.06373373     0.11300
H351        H  0.24917652  0.05134893  0.10057712     0.11300
H352        H  0.33529403  0.00821450  0.10721312     0.11300
C353        C  0.45753466  0.28134119  0.19239003    -0.14800
C354        C  0.46486039  0.29200441  0.16562930     0.07400
C355        C  0.45176955  0.31992679  0.15547431    -0.14800
C356        C  0.42988352  0.33562948  0.17118535    -0.14800
C357        C  0.42057539  0.32302890  0.19688995     0.07400
C358        C  0.43554830  0.29668378  0.20787969    -0.14800
H359        H  0.46685764  0.25945899  0.20024342     0.11300
H360        H  0.45667255  0.32791758  0.13446546     0.11300
H361        H  0.41872027  0.35591950  0.16237008     0.11300
H362        H  0.42908244  0.28685990  0.22793404     0.11300
C363        C  0.40883810  0.28325714  0.30629728    -0.14800
C364        C  0.40737907  0.31652451  0.30413391     0.07400
C365        C  0.42851775  0.33534436  0.31746894    -0.14800
C366        C  0.45015003  0.32105377  0.33368142    -0.14800
C367        C  0.45126397  0.28757734  0.33632407     0.07400
C368        C  0.43068325  0.26903532  0.32179763    -0.14800
H369        H  0.39336005  0.26804793  0.29552499     0.11300
H370        H  0.42812543  0.36105433  0.31558363     0.11300
H371        H  0.46564146  0.33656264  0.34383368     0.11300
H372        H  0.43117030  0.24325771  0.32296765     0.11300
C373        C  0.28545734  0.43191511  0.32146169    -0.14800
C374        C  0.31444023  0.43595573  0.31147115     0.07400
C375        C  0.33326797  0.45723554  0.32540058    -0.14800
C376        C  0.32228192  0.47587333  0.34774564    -0.14800
C377        C  0.29240957  0.47306725  0.35659053     0.07400
C378        C  0.27468239  0.45007793  0.34330119    -0.14800
H379        H  0.27051233  0.41516284  0.31176155     0.11300
H380        H  0.35585441  0.46058342  0.31818532     0.11300
H381        H  0.33664196  0.49359604  0.35678680     0.11300
H382        H  0.25157092  0.44728043  0.34903102     0.11300
C383        C  0.30133019  0.42565819  0.15879732    -0.14800
C384        C  0.31946042  0.43707752  0.17991014     0.07400
C385        C  0.32816356  0.46924284  0.17943878    -0.14800
C386        C  0.31622954  0.49017717  0.15974601    -0.14800
C387        C  0.29528991  0.47936001  0.14029852     0.07400
C388        C  0.28912926  0.44628440  0.13969304    -0.14800
H389        H  0.29447303  0.40086998  0.15843720     0.11300
H390        H  0.34211358  0.47869571  0.19558011     0.11300
H391        H  0.32133391  0.51535112  0.16123100     0.11300
H392        H  0.27266451  0.43597526  0.12642076     0.11300
C393        C  0.22311985  0.28443155  0.16731279    -0.14800
C394        C  0.23578198  0.26617586  0.14556241     0.07400
C395        C  0.26672467  0.26156265  0.14573062    -0.14800
C396        C  0.28430054  0.27687373  0.16533000    -0.14800
C397        C  0.27147660  0.29670490  0.18559163     0.07400
C398        C  0.24066436  0.29996828  0.18659145    -0.14800
H399        H  0.19938860  0.28728364  0.16888475     0.11300
H400        H  0.27763243  0.24553543  0.13136639     0.11300
H401        H  0.30794753  0.27311423  0.16464046     0.11300
H402        H  0.22996595  0.31432271  0.20250344     0.11300
C403        C  0.25229241  0.25073643  0.08425533    -0.14800
C404        C  0.23193551  0.23295965  0.10063473     0.07400
C405        C  0.22639469  0.20108443  0.09268694    -0.14800
C406        C  0.24303426  0.18662869  0.07159848    -0.14800
C407        C  0.26507988  0.20377405  0.05711420     0.07400
C408        C  0.26909501  0.23620588  0.06324174    -0.14800
H409        H  0.25597087  0.27577467  0.08850525     0.11300
H410        H  0.20914766  0.18698886  0.10257864     0.11300
H411        H  0.23859389  0.16188906  0.06669432     0.11300
H412        H  0.28535995  0.25037268  0.05193732     0.11300
C413        C  0.26839474  0.24176067  0.39580954    -0.14800
C414        C  0.23734969  0.23750320  0.39552925     0.07400
C415        C  0.22439808  0.21917404  0.41721380    -0.14800
C416        C  0.24163246  0.20354901  0.43664945    -0.14800
C417        C  0.27251386  0.20668390  0.43597518     0.08600
C418        C  0.28567633  0.22641248  0.41564363    -0.14800
H419        H  0.27961340  0.25753848  0.38133396     0.11300
H420        H  0.20062551  0.21638950  0.41867059     0.11300
H421        H  0.23061181  0.18925758  0.45249697     0.11300
H422        H  0.30937858  0.23003809  0.41506582     0.11300
C423        C  0.25376890  0.25449404  0.33393243    -0.14800
C424        C  0.23383852  0.27182687  0.35087949     0.07400
C425        C  0.22849869  0.30393697  0.34350600    -0.14800
C426        C  0.24465580  0.31880032  0.32212558    -0.14800
C427        C  0.26591025  0.30183821  0.30671957     0.07400
C428        C  0.26988947  0.26934650  0.31253085    -0.14800
H429        H  0.25737734  0.22940475  0.33778005     0.11300
H430        H  0.21161256  0.31786342  0.35389201     0.11300
H431        H  0.24034847  0.34360332  0.31758702     0.11300
H432        H  0.28564301  0.25531653  0.30064477     0.11300
C433        C  0.26734634  0.03486118  0.33535642    -0.14800
C434        C  0.25386599  0.01676051  0.35693475     0.07400
C435        C  0.22278777  0.01345523  0.35691975    -0.14800
C436        C  0.20598801  0.02919421  0.33715438    -0.14800
C437        C  0.21973242  0.04837906  0.31680159     0.07400
C438        C  0.25055001  0.05109608  0.31611495    -0.14800
H439        H  0.29117707  0.03695756  0.33387217     0.11300
H440        H  0.21118751  0.99797564  0.37137825     0.11300
H441        H  0.18221273  0.02612288  0.33765130     0.11300
H442        H  0.26179252  0.06507272  0.30018131     0.11300
C443        C  0.24568066  0.06617938  0.17869640    -0.14800
C444        C  0.22474022  0.04868572  0.19428063     0.07400
C445        C  0.22189178  0.01584939  0.18925388    -0.14800
C446        C  0.23871196  0.00119516  0.16827941    -0.14800
C447        C  0.25803547  0.01912307  0.15094127     0.07400
C448        C  0.26237766  0.05158988  0.15769984    -0.14800
H449        H  0.24919066  0.09131598  0.18264340     0.11300
H450        H  0.20657471  0.00143029  0.20145343     0.11300
H451        H  0.23588359  0.97586236  0.16486134     0.11300
H452        H  0.27875133  0.06609521  0.14698560     0.11300
C453        C  0.08398351  0.03475510  0.18533797    -0.14800
C454        C  0.08087646  0.06580241  0.19603155     0.07400
C455        C  0.05507897  0.08274519  0.19004163    -0.14800
C456        C  0.03301916  0.06891495  0.17374367    -0.14800
C457        C  0.03621377  0.03779304  0.16304949     0.07400
C458        C  0.06195033  0.02093872  0.16928615    -0.14800
H459        H  0.10337386  0.02074137  0.18968378     0.11300
H460        H  0.05167062  0.10645058  0.19835060     0.11300
H461        H  0.01325941  0.08250362  0.16997069     0.11300
H462        H  0.06548420  0.99707107  0.16161563     0.11300
C463        C  0.21651016  0.20103500  0.15561918    -0.14800
C464        C  0.19879028  0.22471050  0.14365195     0.07400
C465        C  0.16922472  0.22733886  0.15332536    -0.14800
C466        C  0.15848723  0.20765454  0.17514540    -0.14800
C467        C  0.17722208  0.18535478  0.18763519     0.07400
C468        C  0.20591791  0.18167018  0.17679846    -0.14800
H469        H  0.23943132  0.19840780  0.14924559     0.11300
H470        H  0.15496960  0.24564298  0.14532593     0.11300
H471        H  0.13617853  0.21088793  0.18306527     0.11300
H472        H  0.22085724  0.16429267  0.18536150     0.11300
C473        C  0.19021924  0.17680226  0.34023287    -0.14800
C474        C  0.17233371  0.18831808  0.31904343     0.07400
C475        C  0.16394497  0.22046344  0.31967850    -0.14800
C476        C  0.17576568  0.24120944  0.33975414    -0.14800
C477        C  0.19646371  0.23031319  0.35934880     0.07400
C478        C  0.20238252  0.19727805  0.35968857    -0.14800
H479        H  0.19685408  0.15202448  0.34043330     0.11300
H480        H  0.15021825  0.23002345  0.30349671     0.11300
H481        H  0.17074987  0.26635603  0.33849213     0.11300
H482        H  0.21857825  0.18690934  0.37307933     0.11300
C483        C  0.25153524  0.45344062  0.06258859    -0.14800
C484        C  0.22072614  0.45607894  0.06313737     0.07400
C485        C  0.20704766  0.47490492  0.08365940    -0.14800
C486        C  0.22384433  0.49011256  0.10385972    -0.14800
C487        C  0.25485930  0.48649267  0.10427390     0.07400
C488        C  0.26834459  0.46895633  0.08244558    -0.14800
H489        H  0.26273152  0.43973396  0.04653210     0.11300
H490        H  0.18329779  0.47792195  0.08408780     0.11300
H491        H  0.21228061  0.50533465  0.11844575     0.11300
H492        H  0.29215014  0.46672120  0.08122005     0.11300
C493        C  0.22232275  0.48386116  0.43759385    -0.14800
C494        C  0.22415455  0.45094232  0.44229039     0.07400
C495        C  0.24455484  0.43311857  0.42653530    -0.14800
C496        C  0.26198630  0.44764378  0.40589307    -0.14800
C497        C  0.25873447  0.48032353  0.39956424     0.07400
C498        C  0.23963974  0.49836898  0.41685543    -0.14800
H499        H  0.20741152  0.49849002  0.44988246     0.11300
H500        H  0.24722264  0.40784731  0.43022254     0.11300
H501        H  0.27802110  0.43293415  0.39515642     0.11300
H502        H  0.23473702  0.02561088  0.41522203     0.11300
C503        C  0.08902618  0.45422250  0.08219997    -0.14800
C504        C  0.08089500  0.42915182  0.06445904     0.07400
C505        C  0.05121969  0.41951337  0.06357356    -0.14800
C506        C  0.02967173  0.43643536  0.07856525    -0.14800
C507        C  0.03772975  0.46258279  0.09505280     0.07400
C508        C  0.06758069  0.47069989  0.09754243    -0.14800
H509        H  0.11178970  0.46226729  0.08287374     0.11300
H510        H  0.04444997  0.40068346  0.04960549     0.11300
H511        H  0.00659831  0.43017122  0.07625928     0.11300
H512        H  0.07342149  0.98431067  0.11533735     0.11300
C513        C  0.21742337  0.30221754  0.40630589    -0.14800
C514        C  0.20007996  0.27855494  0.39356039     0.07400
C515        C  0.17015847  0.27558279  0.40220874    -0.14800
C516        C  0.15872081  0.29480502  0.42392000    -0.14800
C517        C  0.17710017  0.31697483  0.43727510     0.07400
C518        C  0.20610070  0.32123515  0.42730943    -0.14800
H519        H  0.24054265  0.30513714  0.40063882     0.11300
H520        H  0.15610611  0.25732363  0.39354698     0.11300
H521        H  0.13617467  0.29121239  0.43116224     0.11300
H522        H  0.22071545  0.33864929  0.43657478     0.11300
C523        C  0.18959845  0.32700429  0.09045432    -0.14800
C524        C  0.17147925  0.31545446  0.06935650     0.07400
C525        C  0.16223234  0.28347174  0.07039437    -0.14800
C526        C  0.17356723  0.26281059  0.09065682    -0.14800
C527        C  0.19463203  0.27363266  0.11001455     0.07400
C528        C  0.20127098  0.30660618  0.11009098    -0.14800
H529        H  0.19681238  0.35167983  0.09045868     0.11300
H530        H  0.14821861  0.27390262  0.05435421     0.11300
H531        H  0.16801961  0.23771458  0.08960111     0.11300
H532        H  0.21778005  0.31690838  0.12331207     0.11300
C533        C  0.02784003  0.06491254  0.32784004    -0.14800
C534        C  0.03628611  0.04023883  0.34572552     0.07400
C535        C  0.06627635  0.03415968  0.34951659    -0.14800
C536        C  0.08758889  0.05099354  0.33417582    -0.14800
C537        C  0.07921961  0.07441927  0.31504975     0.07400
C538        C  0.04927340  0.08222933  0.31277215    -0.14800
H539        H  0.00466667  0.06962438  0.32452769     0.11300
H540        H  0.07314135  0.01471122  0.36260622     0.11300
H541        H  0.11057357  0.04432726  0.33591619     0.11300
H542        H  0.04235067  0.09974565  0.29772014     0.11300
C543        C  0.03434605  0.42846346  0.41953855    -0.14800
C544        C  0.03642636  0.46041383  0.41050929     0.07400
C545        C  0.06071339  0.47868534  0.41898453    -0.14800
C546        C  0.08232159  0.46559087  0.43575625    -0.14800
C547        C  0.08031694  0.43378583  0.44487825     0.07400
C548        C  0.05602489  0.41531701  0.43656511    -0.14800
H549        H  0.01570936  0.41369428  0.41394842     0.11300
H550        H  0.06587112  0.00285982  0.40957729     0.11300
H551        H  0.10052924  0.48075192  0.44185810     0.11300
H552        H  0.05355489  0.39088390  0.44349312     0.11300
C553        C  0.92947432  0.08497529  0.07136285    -0.14800
C554        C  0.91137155  0.06541658  0.05506860     0.07400
C555        C  0.91517897  0.03221609  0.05627479    -0.14800
C556        C  0.93630359  0.01889971  0.07319066    -0.14800
C557        C  0.95433627  0.03808856  0.08985176     0.07400
C558        C  0.95074431  0.07147239  0.08868577    -0.14800
H559        H  0.92724573  0.11063701  0.07068780     0.11300
H560        H  0.90187806  0.01618381  0.04396991     0.11300
H561        H  0.93833754  0.99318442  0.07357932     0.11300
H562        H  0.96385124  0.08740318  0.10108829     0.11300
C563        C  0.91792603  0.07528569  0.41404310    -0.14800
C564        C  0.91941462  0.07312162  0.44294689     0.07400
C565        C  0.94288165  0.05678418  0.45518656    -0.14800
C566        C  0.96348745  0.04055415  0.43850015    -0.14800
C567        C  0.96054745  0.04061497  0.40957197     0.07400
C568        C  0.93859453  0.05940417  0.39742870    -0.14800
H569        H  0.89980056  0.08760312  0.40440064     0.11300
H570        H  0.94396117  0.05468465  0.47760881     0.11300
H571        H  0.98002461  0.02587633  0.44816500     0.11300
H572        H  0.93606384  0.05967481  0.37505837     0.11300
C573        C  0.75955216  0.06630333  0.40810820    -0.14800
C574        C  0.77515095  0.04861856  0.42784903     0.07400
C575        C  0.77449017  0.01534665  0.42617313    -0.14800
C576        C  0.75643970  0.00011382  0.40713674    -0.14800
C577        C  0.73779473  0.01747800  0.38935080     0.07400
C578        C  0.74175251  0.05089103  0.38850684    -0.14800
H579        H  0.76088619  0.09208015  0.40800385     0.11300
H580        H  0.78679712  0.00090335  0.44054817     0.11300
H581        H  0.75370629  0.47262325  0.40795685     0.11300
H582        H  0.73130764  0.06548859  0.37315421     0.11300
C583        C  0.78587902  0.02799059  0.07754202    -0.14800
C584        C  0.77165112  0.04534339  0.05685574     0.07400
C585        C  0.74148058  0.05150441  0.06028451    -0.14800
C586        C  0.72553915  0.03868870  0.08276567    -0.14800
C587        C  0.73874726  0.01828292  0.10241023     0.07400
C588        C  0.76994948  0.01563301  0.10034525    -0.14800
H589        H  0.80957359  0.02460319  0.07649615     0.11300
H590        H  0.73005986  0.06638977  0.04559173     0.11300
H591        H  0.70294510  0.04605988  0.08504714     0.11300
H592        H  0.78292398  0.00481597  0.11623301     0.11300
C593        C  0.92076793  0.41847864  0.16319754    -0.14800
C594        C  0.91897189  0.42508515  0.19171599     0.07400
C595        C  0.93926929  0.44649337  0.20346064    -0.14800
C596        C  0.95979043  0.46279674  0.18666606    -0.14800
C597        C  0.95980346  0.45840132  0.15785040     0.07400
C598        C  0.94091616  0.43535387  0.14627476    -0.14800
H599        H  0.90512792  0.40229774  0.15377304     0.11300
H600        H  0.93809320  0.45190384  0.22549511     0.11300
H601        H  0.97236284  0.98372751  0.20145625     0.11300
H602        H  0.94049476  0.43196811  0.12394638     0.11300
C603        C  0.93008217  0.41316260  0.31816464    -0.14800
C604        C  0.91205098  0.43270659  0.30205657     0.07400
C605        C  0.91703462  0.46570569  0.30197427    -0.14800
C606        C  0.93885001  0.47908852  0.31831370    -0.14800
C607        C  0.95634935  0.45999015  0.33544221     0.07400
C608        C  0.95190335  0.42667433  0.33495806    -0.14800
H609        H  0.92678926  0.38758223  0.31830716     0.11300
H610        H  0.90394362  0.48133029  0.28923236     0.11300
H611        H  0.94144947  0.50476980  0.31829085     0.11300
H612        H  0.96432222  0.41089387  0.34796751     0.11300
C613        C  0.76830161  0.48116330  0.31007082    -0.14800
C614        C  0.77084296  0.44794890  0.30962044     0.07400
C615        C  0.75749208  0.43023178  0.33133107    -0.14800
C616        C  0.74069820  0.44539127  0.35227797    -0.14800
C617        C  0.73572298  0.47856515  0.35127998     0.07400
C618        C  0.75142049  0.49614753  0.33064335    -0.14800
H619        H  0.77879532  0.49568781  0.29407733     0.11300
H620        H  0.76018706  0.40462666  0.33222114     0.11300
H621        H  0.73222846  0.43090707  0.36915243     0.11300
H622        H  0.74952861  0.02114644  0.33168677     0.11300
C623        C  0.75137625  0.47533534  0.19434282    -0.14800
C624        C  0.77124722  0.45198847  0.18564007     0.07400
C625        C  0.77252666  0.44345886  0.15751374    -0.14800
C626        C  0.75434413  0.45863679  0.13826476    -0.14800
C627        C  0.73459366  0.48332794  0.14633868     0.07400
C628        C  0.73351523  0.49076436  0.17524467    -0.14800
H629        H  0.74979139  0.48187288  0.21613142     0.11300
H630        H  0.78747932  0.42497610  0.15045442     0.11300
H631        H  0.75610761  0.45144451  0.11666314     0.11300
H632        H  0.71912061  0.50866065  0.18393430     0.11300
C633        C  0.72602486  0.23469838  0.35582979    -0.14800
C634        C  0.75707767  0.23069424  0.35563764     0.07400
C635        C  0.76963963  0.21183984  0.33418510    -0.14800
C636        C  0.75197851  0.19553228  0.31543809    -0.14800
C637        C  0.72124918  0.19903519  0.31643654     0.07400
C638        C  0.70842700  0.21900950  0.33651897    -0.14800
H639        H  0.71502784  0.25096479  0.36991068     0.11300
H640        H  0.79339435  0.20942104  0.33227628     0.11300
H641        H  0.76246176  0.18104044  0.29948733     0.11300
H642        H  0.68477369  0.22279461  0.33706948     0.11300
C643        C  0.74131088  0.24920369  0.41648435    -0.14800
C644        C  0.76066547  0.26667479  0.39883280     0.07400
C645        C  0.76404021  0.29960473  0.40427970    -0.14800
C646        C  0.74608800  0.31495794  0.42393501    -0.14800
C647        C  0.72485924  0.29781724  0.43948122     0.07400
C648        C  0.72318510  0.26460706  0.43602490    -0.14800
H649        H  0.73920559  0.22362932  0.41413067     0.11300
H650        H  0.78045622  0.31391588  0.39342115     0.11300
H651        H  0.74885197  0.34037900  0.42688020     0.11300
H652        H  0.70780078  0.25044078  0.44837691     0.11300
C653        C  0.77504947  0.29511117  0.34176755    -0.14800
C654        C  0.79343188  0.27317716  0.35525493     0.07400
C655        C  0.82345567  0.27190988  0.34666612    -0.14800
C656        C  0.83415235  0.29148448  0.32474569    -0.14800
C657        C  0.81492706  0.31223965  0.31098186     0.07400
C658        C  0.78557499  0.31432396  0.32044704    -0.14800
H659        H  0.75182453  0.29673809  0.34733721     0.11300
H660        H  0.83832451  0.25495945  0.35581240     0.11300
H661        H  0.85696250  0.28948271  0.31787475     0.11300
H662        H  0.77019798  0.33048594  0.31085280     0.11300
C663        C  0.81976122  0.23882493  0.40986771    -0.14800
C664        C  0.79917167  0.22640033  0.39075129     0.07400
C665        C  0.79459655  0.19301675  0.39083000    -0.14800
C666        C  0.80806325  0.17359289  0.41015397    -0.14800
C667        C  0.82570376  0.18656086  0.43092739     0.07400
C668        C  0.83265325  0.21914967  0.43001723    -0.14800
H669        H  0.82372192  0.26426797  0.41082642     0.11300
H670        H  0.77844476  0.18143005  0.37804627     0.11300
H671        H  0.80219837  0.14849744  0.41061297     0.11300
H672        H  0.84589424  0.22978216  0.44614154     0.11300
C673        C  0.75110047  0.29900978  0.06195368    -0.14800
C674        C  0.72026496  0.29658533  0.06230655     0.07400
C675        C  0.70616691  0.27780247  0.08278693    -0.14800
C676        C  0.72259613  0.26213462  0.10290384    -0.14800
C677        C  0.75366390  0.26521063  0.10327832     0.07400
C678        C  0.76753168  0.28307227  0.08173792    -0.14800
H679        H  0.76261552  0.31269329  0.04599551     0.11300
H680        H  0.68236730  0.27497324  0.08311677     0.11300
H681        H  0.71073220  0.24691560  0.11739043     0.11300
H682        H  0.79137772  0.28510929  0.08061347     0.11300
C683        C  0.73596450  0.24951488  0.16493176    -0.14800
C684        C  0.75580912  0.23148685  0.14839085     0.07400
C685        C  0.76071679  0.19954009  0.15639853    -0.14800
C686        C  0.74430329  0.18545516  0.17795062    -0.14800
C687        C  0.72306830  0.20298745  0.19288059     0.07400
C688        C  0.71936689  0.23532974  0.18642358    -0.14800
H689        H  0.73272847  0.27456906  0.16065686     0.11300
H690        H  0.77749179  0.18513697  0.14636044     0.11300
H691        H  0.74828367  0.16068280  0.18287801     0.11300
H692        H  0.70373417  0.24976504  0.19807195     0.11300
C693        C  0.81534045  0.26077747  0.15828052    -0.14800
C694        C  0.79414613  0.27171084  0.13923974     0.07400
C695        C  0.78751738  0.30463294  0.13971573    -0.14800
C696        C  0.79946419  0.32486602  0.15940106    -0.14800
C697        C  0.81794402  0.31323643  0.18003730     0.07400
C698        C  0.82709603  0.28133420  0.17855095    -0.14800
H699        H  0.82076809  0.23570588  0.15902903     0.11300
H700        H  0.77084219  0.31500089  0.12683051     0.11300
H701        H  0.79229400  0.34946944  0.15973263     0.11300
H702        H  0.84137503  0.27171797  0.19427255     0.11300
C703        C  0.81842508  0.22477832  0.09569751    -0.14800
C704        C  0.78887593  0.22266097  0.10546960     0.07400
C705        C  0.77051927  0.19925754  0.09352720    -0.14800
C706        C  0.78071171  0.17914794  0.07272814    -0.14800
C707        C  0.80961599  0.18193403  0.06208459     0.07400
C708        C  0.82867605  0.20457456  0.07413830    -0.14800
H709        H  0.83310467  0.24299335  0.10349777     0.11300
H710        H  0.74748026  0.19726907  0.09977811     0.11300
H711        H  0.76528143  0.16198635  0.06434217     0.11300
H712        H  0.85111990  0.20733928  0.06634593     0.11300
C713        C  0.77266850  0.25056187  0.62306824    -0.03900
C714        C  0.77780319  0.24906221  0.87550897    -0.03900
Fe715      Fe  0.79349806  0.37776804  0.74706243     1.65800
Fe716      Fe  0.84065878  0.43875801  0.74567526     1.73200
Fe717      Fe  0.86695749  0.36280117  0.74682372     1.54400
O718        O  0.84975351  0.33970970  0.78188417    -0.83100
O719        O  0.87815036  0.43533277  0.72118121    -0.81400
O720        O  0.80252680  0.33836727  0.77058966    -0.85600
O721        O  0.80193392  0.35340334  0.71125664    -0.80500
O722        O  0.89178533  0.39121838  0.77343868    -0.82300
O723        O  0.81568186  0.44400186  0.71018352    -0.85000
C724        C  0.82244334  0.33411406  0.70479505     0.95800
C725        C  0.82332524  0.33077681  0.78651997     1.03200
O726        O  0.83407036  0.39308804  0.74655871    -1.14000
O727        O  0.80443717  0.44844983  0.77175567    -0.76400
O728        O  0.78383045  0.40196762  0.78333347    -0.79900
O729        O  0.84591533  0.33140007  0.71900421    -0.80600
C730        C  0.78739773  0.43162044  0.78730107     0.94700
O731        O  0.77697827  0.41463487  0.72321075    -0.78600
O732        O  0.86674151  0.43658028  0.77998263    -0.83700
C733        C  0.89345486  0.41368772  0.70961441     0.97300
C734        C  0.88851951  0.41848443  0.78474472     1.03200
O735        O  0.88811399  0.38413776  0.71291204    -0.79400
C736        C  0.78896554  0.43544678  0.70753830     1.01500
Fe737      Fe  0.79388525  0.11890280  0.49258820     1.65800
Fe738      Fe  0.84198443  0.05630655  0.99356493     1.73200
Fe739      Fe  0.86754900  0.13288846  0.99986522     1.54400
O740        O  0.85387378  0.16052570  0.96613384    -0.83100
O741        O  0.87474011  0.05970754  0.52173691    -0.81400
O742        O  0.80501406  0.15298487  0.96628974    -0.85600
O743        O  0.79835960  0.14746467  0.52645929    -0.80500
O744        O  0.89508501  0.10738024  0.97297303    -0.82300
O745        O  0.81268439  0.04910112  0.52586702    -0.85000
C746        C  0.81844583  0.16432220  0.53717724     0.95800
C747        C  0.82834328  0.16580528  0.95645689     1.03200
O748        O  0.83451636  0.10214643  0.99532352    -1.14000
O749        O  0.80922794  0.04575871  0.96541345    -0.76400
O750        O  0.78478771  0.09028063  0.95746677    -0.79900
O751        O  0.84505207  0.16372963  0.52830589    -0.80600
C752        C  0.79061034  0.06153258  0.95178137     0.94700
O753        O  0.77702993  0.08459284  0.51957370    -0.78600
O754        O  0.87142575  0.06240186  0.96106544    -0.83700
C755        C  0.88808728  0.07975875  0.53671396     0.97300
C756        C  0.89327709  0.08149153  0.95929051     1.03200
O757        O  0.88461772  0.10966378  0.53400953    -0.79400
C758        C  0.78780967  0.06100849  0.53242231     1.01500
C759        C  0.97615351  0.47560091  0.85596039     0.85000
C760        C  0.99830188  0.49845705  0.84172488    -0.55200
C761        C  0.01321551  0.01678564  0.85645338     0.08000
C762        C  0.00812754  0.01051041  0.88769672     0.18900
C763        C  0.99489540  0.45667343  0.87654165    -0.55900
C764        C  0.01051192  0.47537321  0.89469400     0.08100
C765        C  0.95674545  0.49669096  0.87428404    -0.55500
C766        C  0.97462089  0.01461466  0.89184744     0.08600
H767        H  0.99794274  0.99931449  0.81709956     0.13100
H768        H  0.02115652  0.02645554  0.90126263    -0.01100
H769        H  0.99732553  0.43105991  0.87564252     0.13500
H770        H  0.93421011  0.99562046  0.87602801     0.13200
Fe771      Fe  0.19783728  0.38054940  0.50421886     1.65800
Fe772      Fe  0.15094465  0.44202065  0.50408733     1.73200
Fe773      Fe  0.12395048  0.36564185  0.50236159     1.54400
O774        O  0.14090785  0.34391803  0.96754035    -0.83100
O775        O  0.11576164  0.43788809  0.53130564    -0.81400
O776        O  0.18838278  0.34282378  0.97862958    -0.85600
O777        O  0.18809258  0.35443945  0.53875172    -0.80500
O778        O  0.09853366  0.39549762  0.97662883    -0.82300
O779        O  0.17670685  0.44912584  0.53823097    -0.85000
C780        C  0.16722657  0.33521113  0.54456996     0.95800
C781        C  0.16742568  0.33546976  0.96262863     1.03200
O782        O  0.15736540  0.39613150  0.50347496    -1.14000
O783        O  0.18665712  0.45137821  0.97521454    -0.76400
O784        O  0.21101524  0.40584467  0.96919769    -0.79900
O785        O  0.14383904  0.33338351  0.53013567    -0.80600
C786        C  0.20655090  0.43482783  0.96313181     0.94700
O787        O  0.21357372  0.41578082  0.53000131    -0.78600
O788        O  0.12399384  0.44036808  0.96944572    -0.83700
C789        C  0.10086333  0.41585516  0.54305655     0.97300
C790        C  0.10181738  0.42261744  0.96498070     1.03200
O791        O  0.10302612  0.38660921  0.53638390    -0.79400
C792        C  0.20228900  0.43895110  0.54317663     1.01500
Fe793      Fe  0.19750552  0.12150205  0.75437352     1.65800
Fe794      Fe  0.15069989  0.05930918  0.75530140     1.73200
Fe795      Fe  0.12345882  0.13530854  0.75250751     1.54400
O796        O  0.14275744  0.16771071  0.78085066    -0.83100
O797        O  0.12425105  0.06033584  0.72127025    -0.81400
O798        O  0.18789649  0.14872980  0.78836896    -0.85600
O799        O  0.18909208  0.15820660  0.72782845    -0.80500
O800        O  0.10158844  0.11390117  0.78607189    -0.82300
O801        O  0.18629136  0.04911857  0.72898133    -0.85000
C802        C  0.16806551  0.16680802  0.71258156     0.95800
C803        C  0.16665008  0.16706826  0.79465008     1.03200
O804        O  0.15698933  0.10538725  0.75398503    -1.14000
O805        O  0.17587036  0.05386530  0.78997569    -0.76400
O806        O  0.21292165  0.08719046  0.78086581    -0.79900
O807        O  0.14140785  0.15896270  0.71783852    -0.80600
C808        C  0.20152612  0.06439059  0.79460174     0.94700
O809        O  0.20997163  0.09475084  0.72039433    -0.78600
O810        O  0.11489172  0.06296550  0.78169048    -0.83700
C811        C  0.10334830  0.07861435  0.71451134     0.97300
C812        C  0.09940489  0.08467493  0.79287296     1.03200
O813        O  0.09988141  0.10626164  0.72513100    -0.79400
C814        C  0.20567483  0.06534490  0.71568251     1.01500
C815        C  0.21533066  0.25473481  0.87460818    -0.03900
C816        C  0.21544684  0.24877885  0.62471740    -0.03900
C817        C  0.97394178  0.02153329  0.60969465     0.85000
C818        C  0.95778153  0.00022940  0.63084787    -0.55200
C819        C  0.97510655  0.48035472  0.64117660     0.08000
C820        C  0.00846253  0.48658213  0.63800197     0.18900
C821        C  0.99553345  0.04135610  0.62717276    -0.55900
C822        C  0.01388595  0.02352796  0.64334890     0.08100
C823        C  0.99387372  0.99875239  0.59292878    -0.55500
C824        C  0.01463412  0.48181760  0.60678051     0.08600
H825        H  0.93433011  0.49731527  0.62485589     0.13100
H826        H  0.02171152  0.47093204  0.65148516    -0.01100
H827        H  0.99699221  0.06703981  0.62639200     0.13500
H828        H  0.99376425  0.99726424  0.57036775     0.13200
Fe829      Fe  0.29384996  0.37116885  0.74539125     1.65800
Fe830      Fe  0.33958360  0.30961831  0.74674092     1.73200
Fe831      Fe  0.36751732  0.38498826  0.74688769     1.54400
O832        O  0.34784703  0.41737172  0.71919883    -0.83100
O833        O  0.36304570  0.31313188  0.78236283    -0.81400
O834        O  0.30398594  0.39562010  0.70994210    -0.85600
O835        O  0.30328234  0.41017226  0.76964184    -0.80500
O836        O  0.38815499  0.36316100  0.71316937    -0.82300
O837        O  0.30192552  0.30015927  0.77078894    -0.85000
C838        C  0.32398290  0.41706061  0.78609575     0.95800
C839        C  0.32471805  0.41520025  0.70443551     1.03200
O840        O  0.33386729  0.35530387  0.74625251    -1.14000
O841        O  0.31644745  0.30339951  0.71060659    -0.76400
O842        O  0.27821263  0.33435112  0.72098665    -0.79900
O843        O  0.35032863  0.40795615  0.78178008    -0.80600
C844        C  0.29003830  0.31213974  0.70682772     0.94700
O845        O  0.28162224  0.34687173  0.78096999    -0.78600
O846        O  0.37849410  0.31247405  0.72404972    -0.83700
C847        C  0.38625389  0.32956242  0.78607912     0.97300
C848        C  0.39403868  0.33360821  0.71172258     1.03200
O849        O  0.39139374  0.35582420  0.77350889    -0.79400
C850        C  0.28409400  0.31713388  0.78505877     1.01500
Fe851      Fe  0.29198905  0.13252992  0.99690494     1.65800
Fe852      Fe  0.34001900  0.19234751  0.49747980     1.73200
Fe853      Fe  0.36576422  0.11601734  0.49995320     1.54400
O854        O  0.34709325  0.09329877  0.53453408    -0.83100
O855        O  0.37800501  0.18967506  0.97434351    -0.81400
O856        O  0.29992494  0.09347369  0.52265473    -0.85600
O857        O  0.30202533  0.10626277  0.96251970    -0.80500
O858        O  0.38970115  0.14484930  0.52702120    -0.82300
O859        O  0.31599120  0.20000146  0.96133065    -0.85000
C860        C  0.32291549  0.08716843  0.95689545     0.95800
C861        C  0.32039523  0.08494087  0.53867553     1.03200
O862        O  0.33299668  0.14660633  0.49803272    -1.14000
O863        O  0.30289154  0.20328000  0.52168261    -0.76400
O864        O  0.28059400  0.15727455  0.53155723    -0.79900
O865        O  0.34609116  0.08534410  0.97153839    -0.80600
C866        C  0.28422519  0.18685546  0.53569449     0.94700
O867        O  0.27759799  0.16853796  0.97094660    -0.78600
O868        O  0.36352578  0.18936198  0.53308204    -0.83700
C869        C  0.39336459  0.16783240  0.96308910     0.97300
C870        C  0.38540164  0.17183563  0.53854898     1.03200
O871        O  0.38780346  0.13836581  0.96650831    -0.79400
C872        C  0.28960511  0.19104927  0.95709583     1.01500
C873        C  0.27491358  0.00101803  0.87641898    -0.03900
C874        C  0.27421256  0.00210769  0.62695225    -0.03900
C875        C  0.47446983  0.27036486  0.85505460     0.85000
C876        C  0.45753206  0.24944667  0.87597407    -0.55200
C877        C  0.47487861  0.23108372  0.89207156     0.08000
C878        C  0.50816261  0.23599610  0.88672607     0.18900
C879        C  0.49571903  0.29020970  0.87299083    -0.55900
C880        C  0.51348329  0.27239320  0.88973779     0.08100
C881        C  0.49461781  0.24728791  0.83894814    -0.55500
C882        C  0.51221700  0.22932990  0.85542832     0.08600
H883        H  0.43355127  0.24860310  0.87752776     0.13100
H884        H  0.52186679  0.22068301  0.90008299    -0.01100
H885        H  0.49741385  0.31587314  0.87214621     0.13500
H886        H  0.49527719  0.24571451  0.81638550     0.13200
C887        C  0.71292412  0.99779510  0.87250925    -0.03900
Fe888      Fe  0.69810848  0.12935259  0.75207732     1.65800
Fe889      Fe  0.65147660  0.19218608  0.75391075     1.73200
Fe890      Fe  0.62334198  0.11584868  0.74904158     1.54400
O891        O  0.64183606  0.09092981  0.71544469    -0.83100
O892        O  0.61789235  0.18745975  0.78264288    -0.81400
O893        O  0.69012615  0.09625389  0.72179496    -0.85600
O894        O  0.68757036  0.09845221  0.78414077    -0.80500
O895        O  0.60151306  0.14398138  0.72030619    -0.82300
O896        O  0.67950837  0.19856063  0.78668336    -0.85000
C897        C  0.66488188  0.08224340  0.79114611     0.95800
C898        C  0.66847605  0.08562781  0.70822953     1.03200
O899        O  0.65750213  0.14581106  0.75165053    -1.14000
O900        O  0.68459660  0.20268824  0.72516278    -0.76400
O901        O  0.71228129  0.15927264  0.72043640    -0.79900
O902        O  0.64046809  0.08412722  0.77842730    -0.80600
C903        C  0.70563439  0.18752792  0.71354963     0.94700
O904        O  0.71307303  0.16061386  0.78164994    -0.78600
O905        O  0.62226637  0.19221921  0.72181752    -0.83700
C906        C  0.60022152  0.16591366  0.79113873     0.97300
C907        C  0.60351760  0.17279870  0.71217391     1.03200
O908        O  0.60010877  0.13773741  0.78139040    -0.79400
C909        C  0.70347320  0.18553975  0.79341439     1.01500
C910        C  0.71807859  0.00247757  0.62413384    -0.03900
Fe911      Fe  0.69710045  0.37103483  0.49843054     1.65800
Fe912      Fe  0.65059580  0.30782039  0.49984795     1.73200
Fe913      Fe  0.62247677  0.38327373  0.49902021     1.54400
O914        O  0.64174956  0.41517430  0.52786244    -0.83100
O915        O  0.62432909  0.30842158  0.96777246    -0.81400
O916        O  0.68814651  0.39880622  0.53269302    -0.85600
O917        O  0.68978625  0.40689653  0.97298439    -0.80500
O918        O  0.60203097  0.36106249  0.53263419    -0.82300
O919        O  0.68671128  0.29762255  0.97411806    -0.85000
C920        C  0.66760603  0.41609301  0.95933373     0.95800
C921        C  0.66625612  0.41535596  0.54070947     1.03200
O922        O  0.65660358  0.35407188  0.49892081    -1.14000
O923        O  0.67667167  0.30233282  0.53379552    -0.76400
O924        O  0.71290195  0.33721384  0.52569520    -0.79900
O925        O  0.64143500  0.40695348  0.96511786    -0.80600
C926        C  0.70179024  0.31388863  0.53911915     0.94700
O927        O  0.71148011  0.34289598  0.96665576    -0.78600
O928        O  0.61541563  0.31039612  0.52718426    -0.83700
C929        C  0.60325024  0.32669559  0.96149868     0.97300
C930        C  0.60020079  0.33180386  0.53912290     1.03200
O931        O  0.60005331  0.35422321  0.97241527    -0.79400
C932        C  0.70676427  0.31363441  0.96154600     1.01500
C933        C  0.47440296  0.22993055  0.60816732     0.85000
C934        C  0.49413545  0.25289635  0.59123352    -0.55200
C935        C  0.51290849  0.27058915  0.60693500     0.08000
C936        C  0.51025516  0.26405460  0.63830382     0.18900
C937        C  0.49615557  0.20993787  0.62506587    -0.55900
C938        C  0.51501255  0.22764840  0.64098846     0.08100
C939        C  0.45888295  0.25084082  0.62986389    -0.55500
C940        C  0.47733342  0.26915466  0.64508851     0.08600
H941        H  0.49394192  0.25427607  0.56866783     0.13100
H942        H  0.52499168  0.27914340  0.65104493    -0.01100
H943        H  0.49724726  0.18424741  0.62426402     0.13500
H944        H  0.43500138  0.25187446  0.63247843     0.13200
C945        C  0.54988125  0.33235222  0.56109056    -0.14800
C946        C  0.57905863  0.32123383  0.56077227     0.07400
C947        C  0.58679295  0.29612979  0.57846731    -0.14800
C948        C  0.56538493  0.28118328  0.59512740    -0.14800
C949        C  0.53591105  0.29084559  0.59405558     0.07400
C950        C  0.52828349  0.31690197  0.57741592    -0.14800
H951        H  0.54341860  0.35136765  0.54727949     0.11300
H952        H  0.60915892  0.28706831  0.57835575     0.11300
H953        H  0.57146118  0.26058914  0.60723267     0.11300
H954        H  0.50546563  0.32431199  0.57617387     0.11300
C955        C  0.67079605  0.48601932  0.59055272    -0.14800
C956        C  0.69208656  0.47510190  0.60967151     0.07400
C957        C  0.69630046  0.44169088  0.61008763    -0.14800
C958        C  0.68671854  0.42232146  0.58824560    -0.14800
C959        C  0.67046184  0.43495633  0.56628794     0.07400
C960        C  0.66069622  0.46648746  0.56873011    -0.14800
H961        H  0.66243479  0.50996938  0.59178465     0.11300
H962        H  0.70809843  0.42998665  0.62636973     0.11300
H963        H  0.69288272  0.39740786  0.58808032     0.11300
H964        H  0.64659601  0.47653507  0.55306641     0.11300
C965        C  0.58621053  0.21589103  0.68039504    -0.14800
C966        C  0.58227208  0.18522134  0.69174138     0.07400
C967        C  0.55640285  0.16821112  0.68562961    -0.14800
C968        C  0.53463297  0.18192087  0.66923951    -0.14800
C969        C  0.53829659  0.21288777  0.65832767     0.07400
C970        C  0.56449169  0.22955727  0.66399633    -0.14800
H971        H  0.60589004  0.22971919  0.68466249     0.11300
H972        H  0.55245832  0.14474881  0.69434192     0.11300
H973        H  0.51455652  0.16847363  0.66588156     0.11300
H974        H  0.56840236  0.25323146  0.65587756     0.11300
C975        C  0.70123016  0.07677463  0.66737192    -0.14800
C976        C  0.67590006  0.06756774  0.68257352     0.07400
C977        C  0.66068616  0.03989115  0.67458849    -0.14800
C978        C  0.67244706  0.02015798  0.65346821    -0.14800
C979        C  0.69939380  0.02806960  0.63960764     0.07400
C980        C  0.71286347  0.05743401  0.64647800    -0.14800
H981        H  0.71323765  0.09823783  0.67283818     0.11300
H982        H  0.64109413  0.03227279  0.68604201     0.11300
H983        H  0.66172296  0.99751268  0.64963754     0.11300
H984        H  0.73399912  0.06437093  0.63748226     0.11300
C985        C  0.67703627  0.00712070  0.83245863    -0.14800
C986        C  0.69145345  0.01961090  0.85608441     0.07400
C987        C  0.68746153  0.05231164  0.86161298    -0.14800
C988        C  0.67704325  0.07270003  0.84089631    -0.14800
C989        C  0.66783048  0.06051366  0.81523510     0.07400
C990        C  0.66587258  0.02740938  0.81196952    -0.14800
H991        H  0.67747899  0.98176135  0.82830874     0.11300
H992        H  0.69413680  0.06266967  0.88110928     0.11300
H993        H  0.67744123  0.09819302  0.84442593     0.11300
H994        H  0.65813469  0.01732488  0.79265939     0.11300
C995        C  0.67047136  0.43051567  0.90830651    -0.14800
C996        C  0.67309705  0.43907838  0.93646169     0.07400
C997        C  0.68425822  0.46917113  0.94290532    -0.14800
C998        C  0.69503232  0.48923183  0.92193254    -0.14800
C999        C  0.69730088  0.47887795  0.89385633     0.07400
C1000       C  0.68183607  0.45064644  0.88711796    -0.14800
H1001       H  0.66111500  0.40761214  0.90279559     0.11300
H1002       H  0.68547560  0.47683414  0.96438462     0.11300
H1003       H  0.70316330  0.51236618  0.92825001     0.11300
H1004       H  0.68037534  0.44303167  0.86567411     0.11300
C1005       C  0.56448985  0.21368609  0.84816064    -0.14800
C1006       C  0.53456885  0.20762322  0.84351299     0.07400
C1007       C  0.52651162  0.18384839  0.82446678    -0.14800
C1008       C  0.54824644  0.16754507  0.80914538    -0.14800
C1009       C  0.57816438  0.17545955  0.81231850     0.07400
C1010       C  0.58612742  0.19785210  0.83260561    -0.14800
H1011       H  0.57113040  0.23251823  0.86207892     0.11300
H1012       H  0.50342565  0.17908278  0.82049877     0.11300
H1013       H  0.54159998  0.15074884  0.79329433     0.11300
H1014       H  0.60906920  0.20454949  0.83517617     0.11300
C1015       C  0.53397852  0.31840156  0.91800917    -0.14800
C1016       C  0.53653366  0.28692667  0.90790512     0.07400
C1017       C  0.56165360  0.26946886  0.91502273    -0.14800
C1018       C  0.58359695  0.28293128  0.93143006    -0.14800
C1019       C  0.58101533  0.31421830  0.94170341     0.07400
C1020       C  0.55592255  0.33185495  0.93471075    -0.14800
H1021       H  0.51472095  0.33254703  0.91362375     0.11300
H1022       H  0.56471609  0.24529820  0.90795681     0.11300
H1023       H  0.60243320  0.26838874  0.93650384     0.11300
H1024       H  0.55294447  0.35582650  0.94256504     0.11300
C1025       C  0.43752010  0.20222661  0.95690977    -0.14800
C1026       C  0.41914464  0.17813161  0.94634085     0.07400
C1027       C  0.42368051  0.16735331  0.91903498    -0.14800
C1028       C  0.44444771  0.18276302  0.90172249    -0.14800
C1029       C  0.46126423  0.20843537  0.91183554     0.07400
C1030       C  0.45860929  0.21713475  0.93980628    -0.14800
H1031       H  0.43440385  0.21069806  0.97804777     0.11300
H1032       H  0.40963832  0.14892308  0.91051809     0.11300
H1033       H  0.44590277  0.17625658  0.87993578     0.11300
H1034       H  0.47097021  0.23727056  0.94772983     0.11300
C1035       C  0.40865449  0.21805276  0.56157534    -0.14800
C1036       C  0.40755828  0.18496895  0.55755796     0.07400
C1037       C  0.42911405  0.16581693  0.56972677    -0.14800
C1038       C  0.45105464  0.17959301  0.58614368    -0.14800
C1039       C  0.45205050  0.21289051  0.59016564     0.07400
C1040       C  0.43079153  0.23177400  0.57719091    -0.14800
H1041       H  0.39283132  0.23365478  0.55194646     0.11300
H1042       H  0.42902175  0.14027212  0.56653085     0.11300
H1043       H  0.46708152  0.16393211  0.59512188     0.11300
H1044       H  0.43115284  0.25746650  0.57944419     0.11300
C1045       C  0.30138871  0.07839558  0.91092629    -0.14800
C1046       C  0.31878910  0.06660561  0.93228459     0.07400
C1047       C  0.32743487  0.03453726  0.93145024    -0.14800
C1048       C  0.31600134  0.01396385  0.91107138    -0.14800
C1049       C  0.29540709  0.02501181  0.89150371     0.07400
C1050       C  0.28953289  0.05811083  0.89127092    -0.14800
H1051       H  0.29473425  0.10317167  0.91078618     0.11300
H1052       H  0.34095671  0.02485779  0.94773291     0.11300
H1053       H  0.32098605  0.98880182  0.91222375     0.11300
H1054       H  0.27342433  0.06873233  0.87795158     0.11300
C1055       C  0.33064851  0.04511211  0.57734590    -0.14800
C1056       C  0.31140340  0.06548798  0.56317433     0.07400
C1057       C  0.28188784  0.06723026  0.57217869    -0.14800
C1058       C  0.27131757  0.04817711  0.59360139    -0.14800
C1059       C  0.28971241  0.02641312  0.60731170     0.07400
C1060       C  0.31985170  0.02548789  0.59915529    -0.14800
H1061       H  0.35360598  0.04343645  0.57086931     0.11300
H1062       H  0.26649080  0.08310667  0.56226697     0.11300
H1063       H  0.24802456  0.04960045  0.59896446     0.11300
H1064       H  0.33476545  0.00876198  0.60853594     0.11300
C1065       C  0.45806173  0.28143310  0.69187021    -0.14800
C1066       C  0.46480712  0.29209657  0.66499183     0.07400
C1067       C  0.45121468  0.31974019  0.65488958    -0.14800
C1068       C  0.42932303  0.33510578  0.67079520    -0.14800
C1069       C  0.42053425  0.32239456  0.69660195     0.07400
C1070       C  0.43602783  0.29640664  0.70753933    -0.14800
H1071       H  0.46783254  0.25975875  0.69967200     0.11300
H1072       H  0.45572253  0.32771214  0.63380322     0.11300
H1073       H  0.41775221  0.35517936  0.66207280     0.11300
H1074       H  0.42995633  0.28657899  0.72769520     0.11300
C1075       C  0.41071477  0.28269420  0.80621988    -0.14800
C1076       C  0.40892714  0.31592165  0.80399640     0.07400
C1077       C  0.43002843  0.33500008  0.81716400    -0.14800
C1078       C  0.45183703  0.32099729  0.83339601    -0.14800
C1079       C  0.45317731  0.28756656  0.83619612     0.07400
C1080       C  0.43274179  0.26876597  0.82170775    -0.14800
H1081       H  0.39530176  0.26729878  0.79556211     0.11300
H1082       H  0.42940448  0.36069486  0.81521413     0.11300
H1083       H  0.46720844  0.33664945  0.84356409     0.11300
H1084       H  0.43340193  0.24300248  0.82300705     0.11300
C1085       C  0.28659397  0.43129482  0.82140242    -0.14800
C1086       C  0.31555970  0.43515374  0.81137042     0.07400
C1087       C  0.33453579  0.45643225  0.82511239    -0.14800
C1088       C  0.32370190  0.47525933  0.84736946    -0.14800
C1089       C  0.29385079  0.47261228  0.85627037     0.07400
C1090       C  0.27596438  0.44965097  0.84313894    -0.14800
H1091       H  0.27156356  0.41454054  0.81181720     0.11300
H1092       H  0.35711563  0.45961453  0.81781929     0.11300
H1093       H  0.33815880  0.49295604  0.85631545     0.11300
H1094       H  0.25286065  0.44698618  0.84894856     0.11300
C1095       C  0.30236339  0.42469856  0.65886808    -0.14800
C1096       C  0.32021629  0.43618556  0.68015314     0.07400
C1097       C  0.32858671  0.46845684  0.67990130    -0.14800
C1098       C  0.31649594  0.48940015  0.66029508    -0.14800
C1099       C  0.29562319  0.47850458  0.64081026     0.07400
C1100       C  0.28993781  0.44533436  0.63990282    -0.14800
H1101       H  0.29581821  0.39981926  0.65831058     0.11300
H1102       H  0.34236576  0.47795475  0.69615339     0.11300
H1103       H  0.32133925  0.51461930  0.66194254     0.11300
H1104       H  0.27365515  0.43487500  0.62653082     0.11300
C1105       C  0.22360630  0.28404264  0.66712799    -0.14800
C1106       C  0.23632107  0.26570708  0.64545322     0.07400
C1107       C  0.26725093  0.26097765  0.64579330    -0.14800
C1108       C  0.28474739  0.27603432  0.66561156    -0.14800
C1109       C  0.27188217  0.29581451  0.68588696     0.07400
C1110       C  0.24108903  0.29937052  0.68660167    -0.14800
H1111       H  0.19987996  0.28701293  0.66855602     0.11300
H1112       H  0.27820468  0.24498310  0.63143166     0.11300
H1113       H  0.30837360  0.27212239  0.66507597     0.11300
H1114       H  0.23035176  0.31375050  0.70247277     0.11300
C1115       C  0.25289044  0.24987774  0.58414721    -0.14800
C1116       C  0.23273995  0.23209915  0.60076236     0.07400
C1117       C  0.22768455  0.19997158  0.59331676    -0.14800
C1118       C  0.24439073  0.18544223  0.57231214    -0.14800
C1119       C  0.26600896  0.20272902  0.55738895     0.07400
C1120       C  0.26970729  0.23528750  0.56317077    -0.14800
H1121       H  0.25631430  0.27501907  0.58811648     0.11300
H1122       H  0.21070373  0.18574012  0.60345825     0.11300
H1123       H  0.24025970  0.16055416  0.56774876     0.11300
H1124       H  0.28569249  0.24952560  0.55158312     0.11300
C1125       C  0.26723905  0.24219430  0.89560676    -0.14800
C1126       C  0.23617633  0.23792928  0.89549059     0.07400
C1127       C  0.22335492  0.21979135  0.91735811    -0.14800
C1128       C  0.24072179  0.20439437  0.93684691    -0.14800
C1129       C  0.27161516  0.20749636  0.93597535     0.08600
C1130       C  0.28464901  0.22701565  0.91543536    -0.14800
H1131       H  0.27839890  0.25786098  0.88100320     0.11300
H1132       H  0.19959038  0.21699712  0.91893800     0.11300
H1133       H  0.22980432  0.19026421  0.95286641     0.11300
H1134       H  0.30835275  0.23061304  0.91469301     0.11300
C1135       C  0.25247619  0.25419056  0.83382619    -0.14800
C1136       C  0.23263952  0.27179729  0.85066659     0.07400
C1137       C  0.22776117  0.30398056  0.84326965    -0.14800
C1138       C  0.24440259  0.31866583  0.82209795    -0.14800
C1139       C  0.26569625  0.30144838  0.80693329     0.07400
C1140       C  0.26908942  0.26886034  0.81265880    -0.14800
H1141       H  0.25575413  0.22904863  0.83768725     0.11300
H1142       H  0.21095864  0.31812643  0.85354279     0.11300
H1143       H  0.24048949  0.34355231  0.81757608     0.11300
H1144       H  0.28479023  0.25461499  0.80091226     0.11300
C1145       C  0.26729158  0.03664653  0.83438221    -0.14800
C1146       C  0.25426027  0.01846365  0.85611163     0.07400
C1147       C  0.22320018  0.01466049  0.85635141    -0.14800
C1148       C  0.20598567  0.02997826  0.83667903    -0.14800
C1149       C  0.21928738  0.04913098  0.81608411     0.07400
C1150       C  0.25008335  0.05236238  0.81515126    -0.14800
H1151       H  0.29108376  0.03910098  0.83269314     0.11300
H1152       H  0.21191005  0.99903998  0.87090137     0.11300
H1153       H  0.18225473  0.02653626  0.83740727     0.11300
H1154       H  0.26101613  0.06638413  0.79906291     0.11300
C1155       C  0.24391341  0.06692944  0.67748349    -0.14800
C1156       C  0.22393762  0.04931714  0.69404053     0.07400
C1157       C  0.22199889  0.01621832  0.69002360    -0.14800
C1158       C  0.23872147  0.00135591  0.66909849    -0.14800
C1159       C  0.25717593  0.01922708  0.65090461     0.07400
C1160       C  0.26061479  0.05210569  0.65660197    -0.14800
H1161       H  0.24669045  0.09232384  0.68060870     0.11300
H1162       H  0.20741972  0.00174273  0.70295035     0.11300
H1163       H  0.23651623  0.97583438  0.66642791     0.11300
H1164       H  0.27628166  0.06679701  0.64518174     0.11300
C1165       C  0.08448634  0.03485559  0.68408765    -0.14800
C1166       C  0.08145937  0.06598404  0.69459475     0.07400
C1167       C  0.05602445  0.08322316  0.68803698    -0.14800
C1168       C  0.03408928  0.06951213  0.67158226    -0.14800
C1169       C  0.03703061  0.03819871  0.66124081     0.07400
C1170       C  0.06251221  0.02111217  0.66791408    -0.14800
H1171       H  0.10361554  0.02063161  0.68889257     0.11300
H1172       H  0.05270723  0.10703254  0.69614916     0.11300
H1173       H  0.01451266  0.08331895  0.66762820     0.11300
H1174       H  0.06576461  0.99701407  0.66080106     0.11300
C1175       C  0.21664756  0.20098855  0.65618605    -0.14800
C1176       C  0.19910221  0.22434832  0.64357662     0.07400
C1177       C  0.16925878  0.22682205  0.65251525    -0.14800
C1178       C  0.15808217  0.20735164  0.67429536    -0.14800
C1179       C  0.17666682  0.18548137  0.68750685     0.07400
C1180       C  0.20564976  0.18188293  0.67735602    -0.14800
H1181       H  0.23971465  0.19840683  0.65031003     0.11300
H1182       H  0.15506267  0.24484897  0.64398206     0.11300
H1183       H  0.13555082  0.21047174  0.68165001     0.11300
H1184       H  0.22048171  0.16476086  0.68645183     0.11300
C1185       C  0.18928969  0.17675756  0.84028963    -0.14800
C1186       C  0.17132217  0.18808789  0.81906632     0.07400
C1187       C  0.16275765  0.22018985  0.81969362    -0.14800
C1188       C  0.17447012  0.24106986  0.83974432    -0.14800
C1189       C  0.19520102  0.23036977  0.85938897     0.07400
C1190       C  0.20127054  0.19735960  0.85978806    -0.14800
H1191       H  0.19607836  0.15203170  0.84053066     0.11300
H1192       H  0.14897459  0.22963891  0.80350540     0.11300
H1193       H  0.16934951  0.26618650  0.83841424     0.11300
H1194       H  0.21746820  0.18713664  0.87326498     0.11300
C1195       C  0.25078530  0.45270511  0.56349791    -0.14800
C1196       C  0.21994894  0.45487425  0.56457426     0.07400
C1197       C  0.20641648  0.47313951  0.58557366    -0.14800
C1198       C  0.22343704  0.48840576  0.60560764    -0.14800
C1199       C  0.25453658  0.48536708  0.60537911     0.07400
C1200       C  0.26778454  0.46821741  0.58319305    -0.14800
H1201       H  0.26187379  0.43941910  0.54710515     0.11300
H1202       H  0.18263126  0.47576956  0.58643726     0.11300
H1203       H  0.21194951  0.50327085  0.62052127     0.11300
H1204       H  0.29159578  0.46634475  0.58150886     0.11300
C1205       C  0.22392781  0.48318581  0.93711975    -0.14800
C1206       C  0.22550116  0.45020466  0.94158954     0.07400
C1207       C  0.24613216  0.43242002  0.92608131    -0.14800
C1208       C  0.26381913  0.44705632  0.90566120    -0.14800
C1209       C  0.26057725  0.47977737  0.89938146     0.07400
C1210       C  0.24152436  0.49778845  0.91669248    -0.14800
H1211       H  0.20895016  0.49782062  0.94933047     0.11300
H1212       H  0.24867966  0.40712406  0.92971975     0.11300
H1213       H  0.27992617  0.43239533  0.89496387     0.11300
H1214       H  0.23577208  0.02730584  0.91443156     0.11300
C1215       C  0.08804888  0.44906991  0.58397689    -0.14800
C1216       C  0.07951061  0.42594330  0.56453389     0.07400
C1217       C  0.04952644  0.41816793  0.56198911    -0.14800
C1218       C  0.02820001  0.43527642  0.57707052    -0.14800
C1219       C  0.03676953  0.45971455  0.59524172     0.07400
C1220       C  0.06679377  0.46569234  0.59939447    -0.14800
H1221       H  0.11109693  0.45568497  0.58589024     0.11300
H1222       H  0.04251704  0.40086625  0.54669699     0.11300
H1223       H  0.00500612  0.43059888  0.57355463     0.11300
H1224       H  0.07100568  0.97917938  0.61697799     0.11300
C1225       C  0.21615696  0.30269485  0.90602215    -0.14800
C1226       C  0.19880405  0.27896235  0.89337468     0.07400
C1227       C  0.16891507  0.27600152  0.90217749    -0.14800
C1228       C  0.15755747  0.29524888  0.92395135    -0.14800
C1229       C  0.17597941  0.31745381  0.93723208     0.07400
C1230       C  0.20491693  0.32172770  0.92708173    -0.14800
H1231       H  0.23925727  0.30561445  0.90028672     0.11300
H1232       H  0.15484409  0.25769890  0.89360845     0.11300
H1233       H  0.13506096  0.29161617  0.93131807     0.11300
H1234       H  0.21957392  0.33915046  0.93627725     0.11300
C1235       C  0.18980482  0.32619577  0.59019755    -0.14800
C1236       C  0.17177954  0.31450663  0.56907893     0.07400
C1237       C  0.16290686  0.28241310  0.56996681    -0.14800
C1238       C  0.17445512  0.26182819  0.59015911    -0.14800
C1239       C  0.19533585  0.27285284  0.60961521     0.07400
C1240       C  0.20169730  0.30587353  0.60976368    -0.14800
H1241       H  0.19676305  0.35095566  0.59027634     0.11300
H1242       H  0.14901961  0.27273764  0.55387596     0.11300
H1243       H  0.16915482  0.23667497  0.58903670     0.11300
H1244       H  0.21808465  0.31630805  0.62304004     0.11300
C1245       C  0.02631133  0.06336631  0.82614124    -0.14800
C1246       C  0.03500930  0.03964010  0.84488703     0.07400
C1247       C  0.06507391  0.03471677  0.84938817    -0.14800
C1248       C  0.08624866  0.05164429  0.83390855    -0.14800
C1249       C  0.07766850  0.07414938  0.81404036     0.07400
C1250       C  0.04757897  0.08083509  0.81098947    -0.14800
H1251       H  0.00310372  0.06719637  0.82225577     0.11300
H1252       H  0.07218529  0.01602249  0.86317457     0.11300
H1253       H  0.10936038  0.04579813  0.83621696     0.11300
H1254       H  0.04050825  0.09758172  0.79534846     0.11300
C1255       C  0.03112727  0.43007881  0.92343180    -0.14800
C1256       C  0.03305701  0.46181893  0.91379872     0.07400
C1257       C  0.05774550  0.48008940  0.92129411    -0.14800
C1258       C  0.08011394  0.46698927  0.93726037    -0.14800
C1259       C  0.07849588  0.43520170  0.94652480     0.07400
C1260       C  0.05354424  0.41695386  0.93961614    -0.14800
H1261       H  0.01220714  0.41532258  0.91867378     0.11300
H1262       H  0.06424255  0.00284721  0.91015595     0.11300
H1263       H  0.09872159  0.48204178  0.94247187     0.11300
H1264       H  0.05125450  0.39260344  0.94681103     0.11300
C1265       C  0.92880427  0.08593762  0.57169502    -0.14800
C1266       C  0.90900522  0.06659614  0.55703797     0.07400
C1267       C  0.91073200  0.03334790  0.56007211    -0.14800
C1268       C  0.93198061  0.01973693  0.57666940    -0.14800
C1269       C  0.95202209  0.03872524  0.59137661     0.07400
C1270       C  0.95009388  0.07217623  0.58880726    -0.14800
H1271       H  0.92817168  0.11161010  0.56957921     0.11300
H1272       H  0.89592960  0.01750351  0.54916755     0.11300
H1273       H  0.93273303  0.99398570  0.57814253     0.11300
H1274       H  0.96483483  0.08800150  0.59958173     0.11300
C1275       C  0.91777378  0.07445299  0.91329399    -0.14800
C1276       C  0.91853532  0.07158740  0.94219355     0.07400
C1277       C  0.94136165  0.05440813  0.95462077    -0.14800
C1278       C  0.96205058  0.03811590  0.93810195    -0.14800
C1279       C  0.95986202  0.03893931  0.90912387     0.07400
C1280       C  0.93852511  0.05843493  0.89683090    -0.14800
H1281       H  0.90012946  0.08740731  0.90349974     0.11300
H1282       H  0.94187253  0.05177569  0.97702946     0.11300
H1283       H  0.97806361  0.02285440  0.94786599     0.11300
H1284       H  0.93652771  0.05919622  0.87441379     0.11300
C1285       C  0.76550685  0.06112676  0.90534980    -0.14800
C1286       C  0.77426029  0.04513782  0.92947378     0.07400
C1287       C  0.76679430  0.01291499  0.93257526    -0.14800
C1288       C  0.74840884  0.99793415  0.91356505    -0.14800
C1289       C  0.73613624  0.01484458  0.89109721     0.07400
C1290       C  0.74788167  0.04558567  0.88569111    -0.14800
H1291       H  0.77246726  0.08551381  0.90162712     0.11300
H1292       H  0.77415899  0.99955184  0.95041338     0.11300
H1293       H  0.75803173  0.47489648  0.90598034     0.11300
H1294       H  0.74312468  0.05807522  0.86666383     0.11300
C1295       C  0.78484882  0.02837184  0.57599211    -0.14800
C1296       C  0.77088411  0.04727991  0.55621041     0.07400
C1297       C  0.74105881  0.05465498  0.56043011    -0.14800
C1298       C  0.72509904  0.04147725  0.58272663    -0.14800
C1299       C  0.73792055  0.01962101  0.60140508     0.07400
C1300       C  0.76894007  0.01563872  0.59861478    -0.14800
H1301       H  0.80836273  0.02391921  0.57434191     0.11300
H1302       H  0.72993427  0.07072038  0.54649817     0.11300
H1303       H  0.70281244  0.04975408  0.58578794     0.11300
H1304       H  0.78185680  0.00334992  0.61367380     0.11300
C1305       C  0.92320665  0.41558469  0.66522664    -0.14800
C1306       C  0.91920276  0.42445479  0.69310425     0.07400
C1307       C  0.93793597  0.44758072  0.70469442    -0.14800
C1308       C  0.95890814  0.46344256  0.68816557    -0.14800
C1309       C  0.96103631  0.45674358  0.65975805     0.07400
C1310       C  0.94385282  0.43199967  0.64849815    -0.14800
H1311       H  0.90885013  0.39795831  0.65594433     0.11300
H1312       H  0.93517136  0.45460586  0.72627616     0.11300
H1313       H  0.97103313  0.98492683  0.70218753     0.11300
H1314       H  0.94500069  0.42698381  0.62640242     0.11300
C1315       C  0.92815652  0.41183454  0.82039670    -0.14800
C1316       C  0.91204189  0.43120642  0.80240122     0.07400
C1317       C  0.91925322  0.46358378  0.80013382    -0.14800
C1318       C  0.94134359  0.47673245  0.81622907    -0.14800
C1319       C  0.95675933  0.45804691  0.83541540     0.07400
C1320       C  0.95017469  0.42520284  0.83707815    -0.14800
H1321       H  0.92308585  0.38665883  0.82216686     0.11300
H1322       H  0.90764781  0.47889021  0.78588977     0.11300
H1323       H  0.94551803  0.50211786  0.81460799     0.11300
H1324       H  0.96094718  0.40992841  0.85178302     0.11300
C1325       C  0.76811166  0.48077657  0.81012369    -0.14800
C1326       C  0.77069769  0.44756014  0.81012947     0.07400
C1327       C  0.75724628  0.43016212  0.83198056    -0.14800
C1328       C  0.74056091  0.44566386  0.85280508    -0.14800
C1329       C  0.73602823  0.47890485  0.85166264     0.07400
C1330       C  0.75141959  0.49611370  0.83060227    -0.14800
H1331       H  0.77852497  0.49504397  0.79390836     0.11300
H1332       H  0.75977273  0.40454694  0.83307309     0.11300
H1333       H  0.73178330  0.43139811  0.86969333     0.11300
H1334       H  0.73763962  0.02071533  0.82350034     0.11300
C1335       C  0.74857904  0.47222741  0.69585488    -0.14800
C1336       C  0.77038951  0.45113004  0.68681097     0.07400
C1337       C  0.77272314  0.44377394  0.65847702    -0.14800
C1338       C  0.75374389  0.45802568  0.63937854    -0.14800
C1339       C  0.73231559  0.48090065  0.64779444     0.07400
C1340       C  0.73001186  0.48688377  0.67689802    -0.14800
H1341       H  0.74598747  0.47758509  0.71781799     0.11300
H1342       H  0.78902195  0.42679694  0.65115234     0.11300
H1343       H  0.75638665  0.45182434  0.61760948     0.11300
H1344       H  0.71400190  0.50295900  0.68583369     0.11300
C1345       C  0.72598930  0.23545639  0.85511500    -0.14800
C1346       C  0.75696242  0.23098850  0.85541845     0.07400
C1347       C  0.76967781  0.21221231  0.83399128    -0.14800
C1348       C  0.75220318  0.19658347  0.81464439    -0.14800
C1349       C  0.72148795  0.20047837  0.81513121     0.07400
C1350       C  0.70856599  0.22027345  0.83534418    -0.14800
H1351       H  0.71494959  0.25167800  0.86920890     0.11300
H1352       H  0.79341823  0.20940548  0.83249574     0.11300
H1353       H  0.76286698  0.18217629  0.79874463     0.11300
H1354       H  0.68495676  0.22434152  0.83566877     0.11300
C1355       C  0.74046724  0.24902053  0.91616679    -0.14800
C1356       C  0.76042864  0.26640381  0.89908655     0.07400
C1357       C  0.76482463  0.29898796  0.90543105    -0.14800
C1358       C  0.74734463  0.31426100  0.92548628    -0.14800
C1359       C  0.72557856  0.29731941  0.94051676     0.07400
C1360       C  0.72280011  0.26435120  0.93608415    -0.14800
H1361       H  0.73764307  0.22361464  0.91316920     0.11300
H1362       H  0.78175843  0.31304477  0.89502774     0.11300
H1363       H  0.75092209  0.33943720  0.92917220     0.11300
H1364       H  0.70693540  0.25030395  0.94799354     0.11300
C1365       C  0.77532332  0.29578828  0.84287506    -0.14800
C1366       C  0.79343756  0.27316492  0.85583527     0.07400
C1367       C  0.82324540  0.27111697  0.84674805    -0.14800
C1368       C  0.83394382  0.29050860  0.82473156    -0.14800
C1369       C  0.81491760  0.31186551  0.81143920     0.07400
C1370       C  0.78587738  0.31486798  0.82149441    -0.14800
H1371       H  0.75222992  0.29794515  0.84879254     0.11300
H1372       H  0.83783509  0.25360143  0.85549462     0.11300
H1373       H  0.85652663  0.28784925  0.81736675     0.11300
H1374       H  0.77073886  0.33154786  0.81222784     0.11300
C1375       C  0.81921339  0.23809459  0.91028609    -0.14800
C1376       C  0.79859314  0.22597901  0.89103722     0.07400
C1377       C  0.79344459  0.19270669  0.89121241    -0.14800
C1378       C  0.80636161  0.17311220  0.91076736    -0.14800
C1379       C  0.82417459  0.18577716  0.93156018     0.07400
C1380       C  0.83165569  0.21824367  0.93058220    -0.14800
H1381       H  0.82359121  0.26346312  0.91118213     0.11300
H1382       H  0.77724896  0.18142605  0.87826216     0.11300
H1383       H  0.80014060  0.14811805  0.91121676     0.11300
H1384       H  0.84507902  0.22866009  0.94667718     0.11300
C1385       C  0.74979845  0.30209082  0.56111775    -0.14800
C1386       C  0.71900582  0.29916674  0.56136228     0.07400
C1387       C  0.70500407  0.28080856  0.58218456    -0.14800
C1388       C  0.72153172  0.26565625  0.60252254    -0.14800
C1389       C  0.75261211  0.26869670  0.60265975     0.07400
C1390       C  0.76633233  0.28662823  0.58108298    -0.14800
H1391       H  0.76122684  0.31560776  0.54499723     0.11300
H1392       H  0.68122165  0.27779698  0.58254051     0.11300
H1393       H  0.70974942  0.25062644  0.61721335     0.11300
H1394       H  0.79017428  0.28872647  0.57986068     0.11300
C1395       C  0.73601320  0.25101260  0.66444383    -0.14800
C1396       C  0.75511340  0.23339975  0.64682999     0.07400
C1397       C  0.75940012  0.20088643  0.65341423    -0.14800
C1398       C  0.74327510  0.18612051  0.67482743    -0.14800
C1399       C  0.72301382  0.20345444  0.69108408     0.07400
C1400       C  0.71984189  0.23619384  0.68589402    -0.14800
H1401       H  0.73314217  0.27631910  0.66114639     0.11300
H1402       H  0.77554588  0.18652496  0.64245408     0.11300
H1403       H  0.74683317  0.16102246  0.67869968     0.11300
H1404       H  0.70491512  0.25047087  0.69848532     0.11300
C1405       C  0.81432068  0.26233584  0.65742451    -0.14800
C1406       C  0.79344553  0.27399540  0.63840944     0.07400
C1407       C  0.78745257  0.30705851  0.63911074    -0.14800
C1408       C  0.79952267  0.32671201  0.65915920    -0.14800
C1409       C  0.81748503  0.31429215  0.67984633     0.07400
C1410       C  0.82617986  0.28228761  0.67803513    -0.14800
H1411       H  0.81932504  0.23714888  0.65791928     0.11300
H1412       H  0.77115763  0.31799690  0.62615876     0.11300
H1413       H  0.79279302  0.35145843  0.65976298     0.11300
H1414       H  0.84010432  0.27212261  0.69378055     0.11300
C1415       C  0.81790896  0.22749283  0.59489906    -0.14800
C1416       C  0.78796027  0.22615683  0.60360716     0.07400
C1417       C  0.76940724  0.20376360  0.59060166    -0.14800
C1418       C  0.77984380  0.18365266  0.56999057    -0.14800
C1419       C  0.80932946  0.18525664  0.56071628     0.07400
C1420       C  0.82849203  0.20715238  0.57358848    -0.14800
H1421       H  0.83280474  0.24497317  0.60352766     0.11300
H1422       H  0.74613702  0.20233934  0.59612528     0.11300
H1423       H  0.76423136  0.16720658  0.56087468     0.11300
H1424       H  0.85134984  0.20905573  0.56678074     0.11300
C1425       C  0.77264055  0.75116018  0.12475153    -0.03900
C1426       C  0.77546397  0.75042762  0.37780283    -0.03900
Fe1427     Fe  0.79349525  0.87754732  0.24802161     1.65800
Fe1428     Fe  0.84140199  0.93784716  0.24985006     1.73200
Fe1429     Fe  0.86695703  0.86175744  0.24928560     1.54400
O1430       O  0.84881448  0.83827172  0.28364679    -0.83100
O1431       O  0.88014509  0.93468354  0.22697805    -0.81400
O1432       O  0.80134840  0.83852524  0.27261047    -0.85600
O1433       O  0.80281674  0.85271281  0.21260340    -0.80500
O1434       O  0.89163521  0.88952641  0.27652154    -0.82300
O1435       O  0.81840004  0.94527074  0.21358561    -0.85000
C1436       C  0.82339774  0.83344151  0.20639758     0.95800
C1437       C  0.82212864  0.83028322  0.28840611     1.03200
O1438       O  0.83417779  0.89229033  0.24889095    -1.14000
O1439       O  0.80429361  0.94786053  0.27432960    -0.76400
O1440       O  0.78223116  0.90174288  0.28398555    -0.79900
O1441       O  0.84661302  0.83070502  0.22088397    -0.80600
C1442       C  0.78635028  0.93108795  0.28886812     0.94700
O1443       O  0.77917018  0.91469817  0.22299212    -0.78600
O1444       O  0.86481521  0.93302681  0.28539800    -0.83700
C1445       C  0.89493167  0.91337899  0.21434248     0.97300
C1446       C  0.88743821  0.91591619  0.28904297     1.03200
O1447       O  0.88860646  0.88385535  0.21602303    -0.79400
C1448       C  0.79206596  0.93649172  0.20894250     1.01500
Fe1449     Fe  0.79145144  0.61961851  0.99364853     1.65800
Fe1450     Fe  0.83714054  0.55589562  0.49699971     1.73200
Fe1451     Fe  0.86429304  0.63207287  0.50047511     1.54400
O1452       O  0.85045676  0.65876432  0.46647258    -0.83100
O1453       O  0.87473243  0.56306913  0.02047765    -0.81400
O1454       O  0.80145771  0.65327904  0.46893893    -0.85600
O1455       O  0.79602431  0.64772676  0.02785109    -0.80500
O1456       O  0.89132414  0.60492258  0.47376772    -0.82300
O1457       O  0.81260235  0.55099422  0.02792281    -0.85000
C1458       C  0.81614341  0.66509291  0.03800579     0.95800
C1459       C  0.82469572  0.66509049  0.45800296     1.03200
O1460       O  0.83067746  0.60177044  0.49750713    -1.14000
O1461       O  0.80422897  0.54549714  0.46893283    -0.76400
O1462       O  0.78146046  0.59073427  0.45979054    -0.79900
O1463       O  0.84248341  0.66539801  0.02833122    -0.80600
C1464       C  0.78700088  0.56190456  0.45422420     0.94700
O1465       O  0.77552084  0.58428425  0.02029432    -0.78600
O1466       O  0.86612486  0.56019746  0.46435223    -0.83700
C1467       C  0.88891977  0.58327443  0.03453087     0.97300
C1468       C  0.88892923  0.57779945  0.46194704     1.03200
O1469       O  0.88421500  0.61303033  0.03272313    -0.79400
C1470       C  0.78698929  0.56158683  0.03383243     1.01500
C1471       C  0.97687824  0.97579176  0.35624920     0.85000
C1472       C  0.99757641  0.99885770  0.34041522    -0.55200
C1473       C  0.01313859  0.51946201  0.35949539     0.08000
C1474       C  0.00765634  0.51103053  0.39027838     0.18900
C1475       C  0.99737235  0.95695596  0.37528893    -0.55900
C1476       C  0.01415265  0.97569366  0.39233960     0.08100
C1477       C  0.95895116  0.99683108  0.37604492    -0.55500
C1478       C  0.97406644  0.51398543  0.39445142     0.08600
H1479       H  0.99904202  0.50412604  0.31908053     0.13100
H1480       H  0.02021102  0.52612534  0.40491698    -0.01100
H1481       H  0.99948694  0.93131312  0.37480469     0.13500
H1482       H  0.93407776  0.49549326  0.37721438     0.13200
Fe1483     Fe  0.19772778  0.88164631  0.00437732     1.65800
Fe1484     Fe  0.15039066  0.94342562  0.00519226     1.73200
Fe1485     Fe  0.12355327  0.86646741  0.00269510     1.54400
O1486       O  0.14009536  0.84255556  0.46786833    -0.83100
O1487       O  0.11608260  0.93894686  0.03330921    -0.81400
O1488       O  0.18773951  0.84384437  0.47805062    -0.85600
O1489       O  0.18836198  0.85272547  0.03760167    -0.80500
O1490       O  0.09830087  0.89473836  0.47605740    -0.82300
O1491       O  0.17708820  0.95060361  0.03858628    -0.85000
C1492       C  0.16694921  0.83455537  0.04433520     0.95800
C1493       C  0.16675961  0.83492852  0.46269871     1.03200
O1494       O  0.15705287  0.89720569  0.00398526    -1.14000
O1495       O  0.18468912  0.95301278  0.47964421    -0.76400
O1496       O  0.20846267  0.90764994  0.47128737    -0.79900
O1497       O  0.14265277  0.83442616  0.03120788    -0.80600
C1498       C  0.20409288  0.93693276  0.46638029     0.94700
O1499       O  0.21259107  0.91505054  0.03211137    -0.78600
O1500       O  0.12271271  0.94092879  0.47228666    -0.83700
C1501       C  0.10047416  0.91687947  0.04410737     0.97300
C1502       C  0.10170635  0.92253283  0.46562208     1.03200
O1503       O  0.10186882  0.88795113  0.03624317    -0.79400
C1504       C  0.20190063  0.93907017  0.04449104     1.01500
Fe1505     Fe  0.19710770  0.61788449  0.25465212     1.65800
Fe1506     Fe  0.14945182  0.55619564  0.25506055     1.73200
Fe1507     Fe  0.12352366  0.63301229  0.25297861     1.54400
O1508       O  0.14370586  0.66518025  0.28091569    -0.83100
O1509       O  0.12177672  0.55816445  0.22193169    -0.81400
O1510       O  0.18800827  0.64461161  0.28915375    -0.85600
O1511       O  0.18904980  0.65534651  0.22836562    -0.80500
O1512       O  0.10226290  0.61197412  0.28697537    -0.82300
O1513       O  0.18406225  0.54617498  0.22726877    -0.85000
C1514       C  0.16816895  0.66430028  0.21300858     0.95800
C1515       C  0.16730665  0.66380640  0.29506786     1.03200
O1516       O  0.15647564  0.60228176  0.25414291    -1.14000
O1517       O  0.17579170  0.54875747  0.28878226    -0.76400
O1518       O  0.21246767  0.58278394  0.28056784    -0.79900
O1519       O  0.14145838  0.65638147  0.21805167    -0.80600
C1520       C  0.20145589  0.55918088  0.29352883     0.94700
O1521       O  0.20888433  0.59158713  0.22039817    -0.78600
O1522       O  0.11475205  0.56065702  0.28296189    -0.83700
C1523       C  0.10128118  0.57701333  0.21533667     0.97300
C1524       C  0.10007498  0.58293912  0.29440548     1.03200
O1525       O  0.09865141  0.60472900  0.22597967    -0.79400
C1526       C  0.20388862  0.56257512  0.21461714     1.01500
C1527       C  0.21464366  0.75278013  0.37504963    -0.03900
C1528       C  0.21530382  0.74706941  0.12460759    -0.03900
C1529       C  0.97626123  0.52419883  0.10489034     0.85000
C1530       C  0.95811539  0.50113937  0.12299378    -0.55200
C1531       C  0.97566768  0.98087572  0.14542510     0.08000
C1532       C  0.00897948  0.98675087  0.14106939     0.18900
C1533       C  0.99517008  0.54328162  0.12542464    -0.55900
C1534       C  0.01202997  0.52476310  0.14240447     0.08100
C1535       C  0.99869199  0.50299670  0.08930448    -0.55500
C1536       C  0.01413760  0.98089912  0.10979738     0.08600
H1537       H  0.93442413  0.99751724  0.12983604     0.13100
H1538       H  0.02263921  0.97151363  0.15454450    -0.01100
H1539       H  0.99693017  0.56899952  0.12524779     0.13500
H1540       H  0.00147129  0.50284256  0.06681180     0.13200
Fe1541     Fe  0.29156660  0.87087224  0.24634520     1.65800
Fe1542     Fe  0.33850008  0.81008232  0.24766112     1.73200
Fe1543     Fe  0.36497844  0.88636440  0.24990088     1.54400
O1544       O  0.34608000  0.91826956  0.22149795    -0.83100
O1545       O  0.36132424  0.81322522  0.28373352    -0.81400
O1546       O  0.30221766  0.89676390  0.21179073    -0.85600
O1547       O  0.29906891  0.90915537  0.27223431    -0.80500
O1548       O  0.38738366  0.86528108  0.21682174    -0.82300
O1549       O  0.30067726  0.79932616  0.27109414    -0.85000
C1550       C  0.31962678  0.91767710  0.28831085     0.95800
C1551       C  0.32319665  0.91610634  0.20644795     1.03200
O1552       O  0.33191357  0.85584288  0.24792156    -1.14000
O1553       O  0.31604915  0.80371210  0.21091112    -0.76400
O1554       O  0.27745380  0.83445611  0.22046664    -0.79900
O1555       O  0.34625948  0.90944967  0.28412354    -0.80600
C1556       C  0.28968285  0.81227378  0.20652873     0.94700
O1557       O  0.27885924  0.84532242  0.28095759    -0.78600
O1558       O  0.37776834  0.81403049  0.22560947    -0.83700
C1559       C  0.38352593  0.83068884  0.28893958     0.97300
C1560       C  0.39327196  0.83584914  0.21423641     1.03200
O1561       O  0.38813625  0.85764370  0.27737085    -0.79400
C1562       C  0.28216343  0.81573129  0.28510473     1.01500
Fe1563     Fe  0.29192271  0.63056789  0.49606584     1.65800
Fe1564     Fe  0.33954127  0.69196717  0.99697053     1.73200
Fe1565     Fe  0.36661394  0.61625785  0.99834562     1.54400
O1566       O  0.34828045  0.59314368  0.03274650    -0.83100
O1567       O  0.37747311  0.68935810  0.47535221    -0.81400
O1568       O  0.30105159  0.59215549  0.02098262    -0.85600
O1569       O  0.30223371  0.60453519  0.46137904    -0.80500
O1570       O  0.38995128  0.64515818  0.02589008    -0.82300
O1571       O  0.31571947  0.69889214  0.46142667    -0.85000
C1572       C  0.32329898  0.58565621  0.45568113     0.95800
C1573       C  0.32168852  0.58466837  0.03720765     1.03200
O1574       O  0.33326628  0.64609701  0.99674842    -1.14000
O1575       O  0.30198934  0.70185763  0.02089036    -0.76400
O1576       O  0.28019922  0.65545346  0.03021246    -0.79900
O1577       O  0.34666408  0.58442614  0.47019667    -0.80600
C1578       C  0.28343733  0.68505714  0.03467578     0.94700
O1579       O  0.27761817  0.66670035  0.47034172    -0.78600
O1580       O  0.36281342  0.68886421  0.03278608    -0.83700
C1581       C  0.39328056  0.66821429  0.46365243     0.97300
C1582       C  0.38502760  0.67169874  0.03798460     1.03200
O1583       O  0.38786599  0.63855912  0.46600427    -0.79400
C1584       C  0.28951687  0.68957417  0.45686983     1.01500
C1585       C  0.27614124  0.49723335  0.37566419    -0.03900
C1586       C  0.27501341  0.50348436  0.12549578    -0.03900
C1587       C  0.47314535  0.77280977  0.35713471     0.85000
C1588       C  0.45673230  0.75087058  0.37758081    -0.55200
C1589       C  0.47454934  0.73281651  0.39345323     0.08000
C1590       C  0.50763962  0.73873135  0.38823102     0.18900
C1591       C  0.49387513  0.79285594  0.37541746    -0.55900
C1592       C  0.51204671  0.77516487  0.39186209     0.08100
C1593       C  0.49403022  0.75074493  0.34063339    -0.55500
C1594       C  0.51201439  0.73288795  0.35687830     0.08600
H1595       H  0.43277595  0.74947909  0.37925490     0.13100
H1596       H  0.52153478  0.72342136  0.40139071    -0.01100
H1597       H  0.49518087  0.81854447  0.37473517     0.13500
H1598       H  0.49471492  0.74957968  0.31805618     0.13200
C1599       C  0.71505994  0.49762599  0.37141400    -0.03900
Fe1600     Fe  0.69723050  0.63059044  0.25321899     1.65800
Fe1601     Fe  0.65045261  0.69366199  0.25509761     1.73200
Fe1602     Fe  0.62227010  0.61722703  0.25098985     1.54400
O1603       O  0.64064784  0.59112335  0.21751888    -0.83100
O1604       O  0.61830108  0.68923317  0.28521815    -0.81400
O1605       O  0.68903681  0.59848027  0.22191710    -0.85600
O1606       O  0.68717579  0.59818863  0.28426329    -0.80500
O1607       O  0.59997798  0.64475981  0.22223116    -0.82300
O1608       O  0.67986977  0.70077897  0.28649181    -0.85000
C1609       C  0.66430012  0.58269323  0.29186391     0.95800
C1610       C  0.66721372  0.58651422  0.20934642     1.03200
O1611       O  0.65654631  0.64716195  0.25306389    -1.14000
O1612       O  0.68227999  0.70380942  0.22508564    -0.76400
O1613       O  0.71169710  0.66152244  0.22253344    -0.79900
O1614       O  0.63934692  0.58605561  0.28049403    -0.80600
C1615       C  0.70423647  0.68913897  0.21460865     0.94700
O1616       O  0.71184329  0.66095915  0.28384890    -0.78600
O1617       O  0.61956650  0.69348571  0.22441756    -0.83700
C1618       C  0.60020694  0.66801523  0.29351392     0.97300
C1619       C  0.60099929  0.67384289  0.21480365     1.03200
O1620       O  0.59936558  0.64001414  0.28330361    -0.79400
C1621       C  0.70293061  0.68689382  0.29443651     1.01500
C1622       C  0.71535112  0.50157556  0.12429266    -0.03900
Fe1623     Fe  0.69604039  0.87327981  0.00126648     1.65800
Fe1624     Fe  0.64900346  0.81079127  0.00467255     1.73200
Fe1625     Fe  0.62138154  0.88662389  0.00359605     1.54400
O1626       O  0.64140825  0.91761311  0.03242421    -0.83100
O1627       O  0.62297806  0.81142466  0.46900493    -0.81400
O1628       O  0.68831593  0.90184237  0.03489992    -0.85600
O1629       O  0.68778456  0.90886471  0.47582411    -0.80500
O1630       O  0.60034549  0.86436022  0.03718837    -0.82300
O1631       O  0.68476522  0.79868337  0.47710924    -0.85000
C1632       C  0.66579091  0.91735562  0.46153604     0.95800
C1633       C  0.66665075  0.91798910  0.04391558     1.03200
O1634       O  0.65530714  0.85698319  0.00309288    -1.14000
O1635       O  0.67567251  0.80543931  0.03801952    -0.76400
O1636       O  0.71208750  0.83976185  0.02883700    -0.79900
O1637       O  0.63969116  0.90774136  0.46696097    -0.80600
C1638       C  0.70108669  0.81661067  0.04259922     0.94700
O1639       O  0.70763730  0.84446154  0.46724620    -0.78600
O1640       O  0.61440025  0.81386366  0.03255362    -0.83700
C1641       C  0.60121441  0.82925016  0.46391998     0.97300
C1642       C  0.59874927  0.83516902  0.04406390     1.03200
O1643       O  0.59750171  0.85615255  0.47586992    -0.79400
C1644       C  0.70393538  0.81480272  0.46342708     1.01500
C1645       C  0.47234263  0.72966675  0.10970591     0.85000
C1646       C  0.49317986  0.75191542  0.09309401    -0.55200
C1647       C  0.51129072  0.76998181  0.10917557     0.08000
C1648       C  0.50713988  0.76423317  0.14055793     0.18900
C1649       C  0.49305676  0.70988174  0.12796719    -0.55900
C1650       C  0.51141407  0.72787952  0.14419090     0.08100
C1651       C  0.45609265  0.75148061  0.13023081    -0.55500
C1652       C  0.47403957  0.76991362  0.14591170     0.08600
H1653       H  0.49380975  0.75297415  0.07051023     0.13100
H1654       H  0.52141634  0.77951304  0.15359259    -0.01100
H1655       H  0.49412305  0.68415916  0.12759727     0.13500
H1656       H  0.43214717  0.75293959  0.13173673     0.13200
C1657       C  0.54766499  0.83376931  0.06467458    -0.14800
C1658       C  0.57732109  0.82427081  0.06548793     0.07400
C1659       C  0.58529472  0.79948728  0.08345982    -0.14800
C1660       C  0.56382929  0.78319885  0.09910679    -0.14800
C1661       C  0.53402468  0.79122284  0.09688171     0.07400
C1662       C  0.52605201  0.81704146  0.08007175    -0.14800
H1663       H  0.54095496  0.85240610  0.05058661     0.11300
H1664       H  0.60799301  0.79152172  0.08416280     0.11300
H1665       H  0.57029557  0.76282731  0.11128773     0.11300
H1666       H  0.50302037  0.82329395  0.07796358     0.11300
C1667       C  0.67617568  0.98906540  0.09140809    -0.14800
C1668       C  0.69808494  0.97767170  0.10969310     0.07400
C1669       C  0.70124473  0.94420399  0.11079499    -0.14800
C1670       C  0.68940074  0.92467408  0.09019735    -0.14800
C1671       C  0.67223504  0.93749290  0.06897367     0.07400
C1672       C  0.66392469  0.96943458  0.07088199    -0.14800
H1673       H  0.66873941  0.01336463  0.09239269     0.11300
H1674       H  0.71367716  0.93248683  0.12661928     0.11300
H1675       H  0.69467156  0.89951585  0.09021379     0.11300
H1676       H  0.64940799  0.97965374  0.05564261     0.11300
C1677       C  0.58276847  0.71666143  0.18334914    -0.14800
C1678       C  0.57890637  0.68625942  0.19518702     0.07400
C1679       C  0.55255510  0.66952920  0.19021349    -0.14800
C1680       C  0.53053871  0.68304415  0.17391685    -0.14800
C1681       C  0.53441051  0.71356117  0.16213912     0.07400
C1682       C  0.56080127  0.73015324  0.16717731    -0.14800
H1683       H  0.60271998  0.73033392  0.18687508     0.11300
H1684       H  0.54861503  0.64635106  0.19949242     0.11300
H1685       H  0.51026743  0.66976227  0.17102812     0.11300
H1686       H  0.56477642  0.75357945  0.15858493     0.11300
C1687       C  0.69955450  0.57624603  0.16809355    -0.14800
C1688       C  0.67436155  0.56755689  0.18377932     0.07400
C1689       C  0.65903612  0.53969075  0.17616960    -0.14800
C1690       C  0.67031687  0.51969722  0.15480796    -0.14800
C1691       C  0.69699289  0.52734402  0.14029766     0.07400
C1692       C  0.71074080  0.55661642  0.14708455    -0.14800
H1693       H  0.71179521  0.59768864  0.17314530     0.11300
H1694       H  0.63959882  0.53224270  0.18793753     0.11300
H1695       H  0.65942120  0.49709958  0.15116893     0.11300
H1696       H  0.73175002  0.56343855  0.13777296     0.11300
C1697       C  0.68544315  0.50662730  0.32663554    -0.14800
C1698       C  0.69370087  0.51764410  0.35331697     0.07400
C1699       C  0.68222974  0.54735367  0.36180737    -0.14800
C1700       C  0.67078754  0.56849322  0.34206225    -0.14800
C1701       C  0.66783782  0.55899052  0.31421537     0.07400
C1702       C  0.67334022  0.52727875  0.30715558    -0.14800
H1703       H  0.69057536  0.48265114  0.31989133     0.11300
H1704       H  0.68446145  0.55540058  0.38304980     0.11300
H1705       H  0.66563957  0.59269252  0.34820289     0.11300
H1706       H  0.67037229  0.51911013  0.28600289     0.11300
C1707       C  0.66887189  0.93062353  0.41024874    -0.14800
C1708       C  0.67133217  0.93987918  0.43826831     0.07400
C1709       C  0.68206066  0.97031150  0.44415017    -0.14800
C1710       C  0.69265753  0.98999728  0.42279905    -0.14800
C1711       C  0.69523954  0.97894346  0.39492906     0.07400
C1712       C  0.68006186  0.95038335  0.38869351    -0.14800
H1713       H  0.65974860  0.90748671  0.40513516     0.11300
H1714       H  0.68308233  0.97854924  0.46547759     0.11300
H1715       H  0.70056630  0.01337527  0.42868787     0.11300
H1716       H  0.67866479  0.94225531  0.36738979     0.11300
C1717       C  0.56443479  0.71690838  0.34999024    -0.14800
C1718       C  0.53450012  0.71133988  0.34487546     0.07400
C1719       C  0.52646069  0.68751047  0.32590238    -0.14800
C1720       C  0.54818883  0.67062216  0.31109733    -0.14800
C1721       C  0.57816764  0.67798322  0.31463479     0.07400
C1722       C  0.58611918  0.70052111  0.33485631    -0.14800
H1723       H  0.57108020  0.73561699  0.36405166     0.11300
H1724       H  0.50338545  0.68300286  0.32168325     0.11300
H1725       H  0.54152341  0.65377839  0.29529286     0.11300
H1726       H  0.60910549  0.70685484  0.33770450     0.11300
C1727       C  0.53230368  0.82132937  0.42009713    -0.14800
C1728       C  0.53484855  0.78977134  0.41016498     0.07400
C1729       C  0.55976592  0.77218690  0.41760635    -0.14800
C1730       C  0.58144509  0.78551361  0.43426717    -0.14800
C1731       C  0.57893191  0.81687865  0.44429135     0.07400
C1732       C  0.55410548  0.83472214  0.43696600    -0.14800
H1733       H  0.51320873  0.83560041  0.41544039     0.11300
H1734       H  0.56302071  0.74806993  0.41049939     0.11300
H1735       H  0.60010802  0.77083456  0.43959942     0.11300
H1736       H  0.55127289  0.85879942  0.44461960     0.11300
C1737       C  0.43425952  0.70688956  0.45734882    -0.14800
C1738       C  0.41924297  0.67972294  0.44768163     0.07400
C1739       C  0.42752152  0.66643204  0.42197083    -0.14800
C1740       C  0.44840799  0.68216000  0.40496245    -0.14800
C1741       C  0.46159879  0.71068925  0.41393274     0.07400
C1742       C  0.45535293  0.72218408  0.44062479    -0.14800
H1743       H  0.42851428  0.71728963  0.47734076     0.11300
H1744       H  0.41623694  0.64552260  0.41417105     0.11300
H1745       H  0.45262432  0.67346713  0.38405950     0.11300
H1746       H  0.46491761  0.74447986  0.44756861     0.11300
C1747       C  0.40967833  0.71801878  0.05936037    -0.14800
C1748       C  0.40689289  0.68483329  0.05728290     0.07400
C1749       C  0.42627430  0.66538109  0.07204243    -0.14800
C1750       C  0.44774900  0.67907198  0.08911421    -0.14800
C1751       C  0.45050698  0.71251995  0.09113817     0.07400
C1752       C  0.43130287  0.73158379  0.07572846    -0.14800
H1753       H  0.39550590  0.73369172  0.04774554     0.11300
H1754       H  0.42470411  0.63968345  0.07048896     0.11300
H1755       H  0.46189314  0.66323555  0.10037032     0.11300
H1756       H  0.43288086  0.75733869  0.07663566     0.11300
C1757       C  0.30123256  0.57557869  0.40984560    -0.14800
C1758       C  0.31908266  0.56453481  0.43123129     0.07400
C1759       C  0.32819121  0.53257631  0.43059784    -0.14800
C1760       C  0.31695362  0.51147416  0.41045249    -0.14800
C1761       C  0.29621918  0.52183481  0.39070250     0.07400
C1762       C  0.28979064  0.55479835  0.39023382    -0.14800
H1763       H  0.29410038  0.60018706  0.40952446     0.11300
H1764       H  0.34198463  0.52335596  0.44687728     0.11300
H1765       H  0.32233664  0.48642814  0.41185406     0.11300
H1766       H  0.27358594  0.56485584  0.37667807     0.11300
C1767       C  0.33185577  0.54507700  0.07588724    -0.14800
C1768       C  0.31304462  0.56649535  0.06244071     0.07400
C1769       C  0.28418395  0.57031580  0.07272042    -0.14800
C1770       C  0.27345574  0.55163034  0.09433565    -0.14800
C1771       C  0.29118100  0.52844482  0.10705112     0.07400
C1772       C  0.32096541  0.52598991  0.09797534    -0.14800
H1773       H  0.35434609  0.54191841  0.06842321     0.11300
H1774       H  0.26929544  0.58717882  0.06334559     0.11300
H1775       H  0.25038268  0.55408021  0.10023471     0.11300
H1776       H  0.33529386  0.50809549  0.10651688     0.11300
C1777       C  0.45870706  0.78653778  0.19325384    -0.14800
C1778       C  0.46118536  0.79368561  0.16492754     0.07400
C1779       C  0.44465124  0.81883462  0.15390134    -0.14800
C1780       C  0.42403734  0.83498931  0.17061617    -0.14800
C1781       C  0.41944923  0.82554873  0.19827665     0.07400
C1782       C  0.43778793  0.80225129  0.20981495    -0.14800
H1783       H  0.47089849  0.76684666  0.20190652     0.11300
H1784       H  0.44603771  0.82417604  0.13187053     0.11300
H1785       H  0.41000809  0.85277553  0.16138060     0.11300
H1786       H  0.43458981  0.79482230  0.23124896     0.11300
C1787       C  0.41010589  0.78431211  0.30733897    -0.14800
C1788       C  0.40599870  0.81738505  0.30725410     0.07400
C1789       C  0.42492091  0.83683901  0.32269796    -0.14800
C1790       C  0.44718890  0.82322528  0.33863926    -0.14800
C1791       C  0.45122863  0.78988368  0.33883162     0.07400
C1792       C  0.43252148  0.77084077  0.32264645    -0.14800
H1793       H  0.39629584  0.76875452  0.29505346     0.11300
H1794       H  0.42231673  0.86247782  0.32261892     0.11300
H1795       H  0.46065761  0.83907323  0.35075358     0.11300
H1796       H  0.43494542  0.74516855  0.32231798     0.11300
C1797       C  0.28177941  0.93365240  0.32302207    -0.14800
C1798       C  0.31090072  0.93672157  0.31311645     0.07400
C1799       C  0.33010574  0.95780510  0.32686276    -0.14800
C1800       C  0.31956701  0.97685245  0.34911978    -0.14800
C1801       C  0.28972879  0.97469394  0.35813674     0.07400
C1802       C  0.27145068  0.95218201  0.34487098    -0.14800
H1803       H  0.26648310  0.91720116  0.31342932     0.11300
H1804       H  0.35278387  0.96049345  0.31970138     0.11300
H1805       H  0.33431037  0.99426023  0.35808136     0.11300
H1806       H  0.24831982  0.94996855  0.35072518     0.11300
C1807       C  0.30207046  0.92492350  0.16031457    -0.14800
C1808       C  0.31940637  0.93670999  0.18182747     0.07400
C1809       C  0.32802502  0.96890062  0.18127415    -0.14800
C1810       C  0.31649320  0.98957556  0.16114780    -0.14800
C1811       C  0.29579121  0.97851555  0.14157614     0.07400
C1812       C  0.29005250  0.94531568  0.14094551    -0.14800
H1813       H  0.29545908  0.90005570  0.15993326     0.11300
H1814       H  0.34152306  0.97858640  0.19765258     0.11300
H1815       H  0.32144729  0.01478852  0.16255892     0.11300
H1816       H  0.27392629  0.93462947  0.12755715     0.11300
C1817       C  0.22356895  0.78201230  0.16724923    -0.14800
C1818       C  0.23634068  0.76443199  0.14510867     0.07400
C1819       C  0.26750345  0.76137825  0.14458728    -0.14800
C1820       C  0.28496022  0.77695675  0.16430529    -0.14800
C1821       C  0.27185061  0.79563436  0.18530847     0.07400
C1822       C  0.24094106  0.79770237  0.18663542    -0.14800
H1823       H  0.19978658  0.78404791  0.16918966     0.11300
H1824       H  0.27871603  0.74635167  0.12961273     0.11300
H1825       H  0.30872538  0.77427017  0.16317171     0.11300
H1826       H  0.23000346  0.81121782  0.20296747     0.11300
C1827       C  0.25154768  0.74801254  0.08303634    -0.14800
C1828       C  0.23245061  0.73007788  0.10058286     0.07400
C1829       C  0.22816889  0.69755084  0.09383585    -0.14800
C1830       C  0.24463833  0.68302310  0.07255345    -0.14800
C1831       C  0.26513949  0.70067746  0.05658543     0.07400
C1832       C  0.26794077  0.73350365  0.06170407    -0.14800
H1833       H  0.25441132  0.77334277  0.08643639     0.11300
H1834       H  0.21195243  0.68298050  0.10467922     0.11300
H1835       H  0.24122507  0.65787141  0.06860152     0.11300
H1836       H  0.28301388  0.74805709  0.04936055     0.11300
C1837       C  0.26674231  0.74109604  0.39589519    -0.14800
C1838       C  0.23574013  0.73634190  0.39580850     0.07400
C1839       C  0.22311926  0.71790978  0.41755257    -0.14800
C1840       C  0.24065411  0.70253584  0.43683136    -0.14800
C1841       C  0.27149097  0.70605278  0.43591859     0.08600
C1842       C  0.28433746  0.72598263  0.41558912    -0.14800
H1843       H  0.27767130  0.75703709  0.38136247     0.11300
H1844       H  0.19938678  0.71478352  0.41913153     0.11300
H1845       H  0.22989499  0.68810298  0.45273732     0.11300
H1846       H  0.30800140  0.72989481  0.41488689     0.11300
C1847       C  0.25166746  0.75248872  0.33414848    -0.14800
C1848       C  0.23165611  0.76990164  0.35099041     0.07400
C1849       C  0.22628850  0.80192639  0.34348327    -0.14800
C1850       C  0.24257419  0.81669664  0.32215145    -0.14800
C1851       C  0.26400279  0.79971656  0.30693384     0.07400
C1852       C  0.26793452  0.76725633  0.31279824    -0.14800
H1853       H  0.25534312  0.72744227  0.33813434     0.11300
H1854       H  0.20936858  0.81587710  0.35379512     0.11300
H1855       H  0.23829909  0.84149739  0.31757766     0.11300
H1856       H  0.28379768  0.75322382  0.30104668     0.11300
C1857       C  0.26786693  0.53189259  0.33301659    -0.14800
C1858       C  0.25517042  0.51392376  0.35503907     0.07400
C1859       C  0.22416097  0.50931558  0.35513870    -0.14800
C1860       C  0.20666206  0.52391472  0.33519853    -0.14800
C1861       C  0.21959613  0.54322586  0.31449273     0.07400
C1862       C  0.25037941  0.54679002  0.31345524    -0.14800
H1863       H  0.29161054  0.53486077  0.33134635     0.11300
H1864       H  0.21313197  0.49376341  0.36992407     0.11300
H1865       H  0.18297771  0.52012470  0.33602279     0.11300
H1866       H  0.26107450  0.56084184  0.29725164     0.11300
C1867       C  0.24351513  0.56550906  0.17784671    -0.14800
C1868       C  0.22227959  0.54742618  0.19258351     0.07400
C1869       C  0.21975004  0.51476168  0.18674777    -0.14800
C1870       C  0.23730297  0.50084844  0.16589561    -0.14800
C1871       C  0.25710165  0.51938106  0.14950352     0.07400
C1872       C  0.26098161  0.55165200  0.15703483    -0.14800
H1873       H  0.24682266  0.59053040  0.18244358     0.11300
H1874       H  0.20421366  0.49990495  0.19827535     0.11300
H1875       H  0.23471178  0.47561572  0.16183338     0.11300
H1876       H  0.27760481  0.56654433  0.14710732     0.11300
C1877       C  0.08225095  0.53445110  0.18371966    -0.14800
C1878       C  0.07907139  0.56503871  0.19538059     0.07400
C1879       C  0.05349606  0.58242636  0.18951496    -0.14800
C1880       C  0.03155708  0.56933342  0.17265044    -0.14800
C1881       C  0.03470346  0.53856473  0.16121443     0.07400
C1882       C  0.06039356  0.52140905  0.16699483    -0.14800
H1883       H  0.10159059  0.52022978  0.18776485     0.11300
H1884       H  0.05012883  0.60585838  0.19841266     0.11300
H1885       H  0.01190811  0.58317240  0.16902537     0.11300
H1886       H  0.06402412  0.49795152  0.15838614     0.11300
C1887       C  0.21683137  0.69953138  0.15670643    -0.14800
C1888       C  0.19914336  0.72266624  0.14388573     0.07400
C1889       C  0.16935950  0.72505983  0.15306733    -0.14800
C1890       C  0.15832222  0.70555439  0.17498194    -0.14800
C1891       C  0.17691133  0.68354450  0.18811147     0.07400
C1892       C  0.20592731  0.68026312  0.17792698    -0.14800
H1893       H  0.23992573  0.69715842  0.15084954     0.11300
H1894       H  0.15506609  0.74297417  0.14449024     0.11300
H1895       H  0.13579136  0.70859071  0.18236572     0.11300
H1896       H  0.22084190  0.66321790  0.18700456     0.11300
C1897       C  0.19053754  0.67423810  0.34042559    -0.14800
C1898       C  0.17218532  0.68509222  0.31932311     0.07400
C1899       C  0.16275968  0.71692821  0.32016479    -0.14800
C1900       C  0.17388910  0.73806192  0.34033831    -0.14800
C1901       C  0.19487826  0.72791564  0.35994097     0.07400
C1902       C  0.20190088  0.69508791  0.36006229    -0.14800
H1903       H  0.19797976  0.64973713  0.34057862     0.11300
H1904       H  0.14860982  0.72602221  0.30410710     0.11300
H1905       H  0.16809685  0.76301164  0.33913373     0.11300
H1906       H  0.21842106  0.68526234  0.37341511     0.11300
C1907       C  0.25031517  0.95176122  0.06502720    -0.14800
C1908       C  0.21954947  0.95455901  0.06601085     0.07400
C1909       C  0.20619450  0.97329792  0.08677604    -0.14800
C1910       C  0.22337781  0.98841875  0.10675173    -0.14800
C1911       C  0.25443379  0.98495095  0.10648471     0.07400
C1912       C  0.26747840  0.96733903  0.08448441    -0.14800
H1913       H  0.26123859  0.93813398  0.04875171     0.11300
H1914       H  0.18245592  0.97639667  0.08748632     0.11300
H1915       H  0.21210813  0.00362876  0.12154577     0.11300
H1916       H  0.29127243  0.96523172  0.08274537     0.11300
C1917       C  0.22008188  0.98565950  0.43952001    -0.14800
C1918       C  0.22244116  0.95281766  0.44453701     0.07400
C1919       C  0.24308301  0.93523766  0.42884221    -0.14800
C1920       C  0.26011280  0.94978689  0.40792545    -0.14800
C1921       C  0.25641273  0.98231650  0.40130332     0.07400
C1922       C  0.23718535  0.00025938  0.41858319    -0.14800
H1923       H  0.20496120  0.00013278  0.45172296     0.11300
H1924       H  0.24619899  0.91007101  0.43272042     0.11300
H1925       H  0.27628741  0.93521689  0.39721608     0.11300
H1926       H  0.23738606  0.52375923  0.41359168     0.11300
C1927       C  0.08770515  0.94931239  0.08572745    -0.14800
C1928       C  0.07918222  0.92654677  0.06593448     0.07400
C1929       C  0.04923279  0.91838772  0.06375890    -0.14800
C1930       C  0.02791492  0.93479932  0.07949434    -0.14800
C1931       C  0.03640636  0.95896538  0.09798888     0.07400
C1932       C  0.06646257  0.96524050  0.10178502    -0.14800
H1933       H  0.11070010  0.95620884  0.08747433     0.11300
H1934       H  0.04217014  0.90132053  0.04829308     0.11300
H1935       H  0.00472831  0.92987238  0.07618123     0.11300
H1936       H  0.07407848  0.49123589  0.10965534     0.11300
C1937       C  0.21545014  0.80089077  0.40637971    -0.14800
C1938       C  0.19809655  0.77697142  0.39395546     0.07400
C1939       C  0.16832338  0.77391991  0.40307900    -0.14800
C1940       C  0.15703480  0.79346548  0.42475230    -0.14800
C1941       C  0.17540314  0.81609495  0.43765670     0.07400
C1942       C  0.20431056  0.82015926  0.42735135    -0.14800
H1943       H  0.23848994  0.80388506  0.40045021     0.11300
H1944       H  0.15428554  0.75544725  0.39472614     0.11300
H1945       H  0.13457791  0.78987146  0.43224278     0.11300
H1946       H  0.21900465  0.83776072  0.43623202     0.11300
C1947       C  0.18957181  0.82481819  0.09001755    -0.14800
C1948       C  0.17172890  0.81335572  0.06867217     0.07400
C1949       C  0.16302956  0.78114871  0.06933626    -0.14800
C1950       C  0.17443479  0.76036601  0.08958175    -0.14800
C1951       C  0.19503010  0.77123127  0.10940861     0.07400
C1952       C  0.20115195  0.80435584  0.10976448    -0.14800
H1953       H  0.19645839  0.84959738  0.09027300     0.11300
H1954       H  0.14930704  0.77156440  0.05308078     0.11300
H1955       H  0.16924023  0.73520308  0.08823732     0.11300
H1956       H  0.21716858  0.81482682  0.12340652     0.11300
C1957       C  0.02783838  0.56717014  0.33151254    -0.14800
C1958       C  0.03578877  0.54207858  0.34914871     0.07400
C1959       C  0.06566512  0.53466526  0.35216625    -0.14800
C1960       C  0.08712013  0.55013673  0.33583710    -0.14800
C1961       C  0.07899897  0.57357303  0.31660534     0.07400
C1962       C  0.04941075  0.58314869  0.31554244    -0.14800
H1963       H  0.00477462  0.57288708  0.32873761     0.11300
H1964       H  0.07214944  0.51487907  0.36506243     0.11300
H1965       H  0.10984013  0.54229757  0.33683132     0.11300
H1966       H  0.04265876  0.60088009  0.30060934     0.11300
C1967       C  0.03246701  0.93135402  0.42288619    -0.14800
C1968       C  0.03633890  0.96205432  0.41146884     0.07400
C1969       C  0.06202324  0.97922940  0.41780492    -0.14800
C1970       C  0.08352721  0.96590562  0.43461887    -0.14800
C1971       C  0.07980747  0.93512547  0.44587160     0.07400
C1972       C  0.05395342  0.91803966  0.43986247    -0.14800
H1973       H  0.01261841  0.91767173  0.41906953     0.11300
H1974       H  0.06350087  0.50315523  0.41248785     0.11300
H1975       H  0.10300747  0.97999896  0.43901730     0.11300
H1976       H  0.05008683  0.89458136  0.44860971     0.11300
C1977       C  0.92723880  0.58878821  0.07208986    -0.14800
C1978       C  0.91224297  0.57032034  0.05243061     0.07400
C1979       C  0.92002270  0.53814298  0.04907507    -0.14800
C1980       C  0.94134665  0.52442398  0.06540776    -0.14800
C1981       C  0.95609303  0.54229504  0.08558301     0.07400
C1982       C  0.94893896  0.57486535  0.08867671    -0.14800
H1983       H  0.92180224  0.61366876  0.07502040     0.11300
H1984       H  0.90938129  0.52309112  0.03388163     0.11300
H1985       H  0.94581512  0.49925925  0.06274433     0.11300
H1986       H  0.95904032  0.58951462  0.10435670     0.11300
C1987       C  0.93275892  0.58138236  0.42873331    -0.14800
C1988       C  0.91436360  0.56386037  0.44697269     0.07400
C1989       C  0.91993351  0.53134257  0.45116603    -0.14800
C1990       C  0.94192509  0.51595345  0.43594718    -0.14800
C1991       C  0.95873539  0.53266689  0.41608525     0.07400
C1992       C  0.95474019  0.56566912  0.41302151    -0.14800
H1993       H  0.92902061  0.60655981  0.42549059     0.11300
H1994       H  0.90655787  0.51750265  0.46570886     0.11300
H1995       H  0.94449721  0.49043750  0.43829050     0.11300
H1996       H  0.96720476  0.57872133  0.39728444     0.11300
C1997       C  0.75888525  0.56455435  0.40950002    -0.14800
C1998       C  0.77241654  0.54649144  0.43031005     0.07400
C1999       C  0.77163372  0.51321575  0.42829020    -0.14800
C2000       C  0.75507776  0.49839979  0.40781117    -0.14800
C2001       C  0.73803566  0.51627203  0.38902871     0.07400
C2002       C  0.74264762  0.54957519  0.38855181    -0.14800
H2003       H  0.76064830  0.59030274  0.40954454     0.11300
H2004       H  0.78266241  0.49848220  0.44335910     0.11300
H2005       H  0.75541801  0.97432296  0.40760380     0.11300
H2006       H  0.73375762  0.56439642  0.37246298     0.11300
C2007       C  0.78320041  0.52793654  0.07713092    -0.14800
C2008       C  0.76971166  0.54732450  0.05737960     0.07400
C2009       C  0.73974576  0.55451884  0.06126362    -0.14800
C2010       C  0.72331515  0.54097701  0.08316345    -0.14800
C2011       C  0.73569913  0.51882348  0.10183202     0.07400
C2012       C  0.76678686  0.51477367  0.09935486    -0.14800
H2013       H  0.80671253  0.52341104  0.07577337     0.11300
H2014       H  0.72884153  0.57083254  0.04739436     0.11300
H2015       H  0.70100724  0.54926368  0.08599683     0.11300
H2016       H  0.77939768  0.50215156  0.11444835     0.11300
C2017       C  0.92483383  0.91551965  0.17012641    -0.14800
C2018       C  0.92071919  0.92447162  0.19796846     0.07400
C2019       C  0.93919523  0.94796660  0.20942716    -0.14800
C2020       C  0.95991407  0.96409753  0.19274813    -0.14800
C2021       C  0.96206880  0.95724586  0.16434844     0.07400
C2022       C  0.94521675  0.93213419  0.15328984    -0.14800
H2023       H  0.91069248  0.89763875  0.16091367     0.11300
H2024       H  0.93638228  0.95508426  0.23097829     0.11300
H2025       H  0.97386729  0.48076396  0.19585871     0.11300
H2026       H  0.94636781  0.92697471  0.13121904     0.11300
C2027       C  0.93015190  0.91025132  0.32148348    -0.14800
C2028       C  0.91083374  0.92932994  0.30632422     0.07400
C2029       C  0.91505495  0.96239531  0.30583740    -0.14800
C2030       C  0.93754873  0.97636363  0.32075927    -0.14800
C2031       C  0.95615465  0.95786334  0.33726911     0.07400
C2032       C  0.95251761  0.92442957  0.33717840    -0.14800
H2033       H  0.92754393  0.88458346  0.32164811     0.11300
H2034       H  0.90105397  0.97761290  0.29359014     0.11300
H2035       H  0.93978448  0.00208372  0.32025189     0.11300
H2036       H  0.96616815  0.90906014  0.34942884     0.11300
C2037       C  0.76768868  0.98008350  0.31220321    -0.14800
C2038       C  0.76942999  0.94681967  0.31164475     0.07400
C2039       C  0.75521602  0.92929961  0.33300166    -0.14800
C2040       C  0.73852758  0.94481100  0.35384449    -0.14800
C2041       C  0.73466147  0.97817665  0.35306836     0.07400
C2042       C  0.75087023  0.99539860  0.33254823    -0.14800
H2043       H  0.77876364  0.99444139  0.29643307     0.11300
H2044       H  0.75718689  0.90360547  0.33371117     0.11300
H2045       H  0.72919090  0.93042356  0.37037838     0.11300
H2046       H  0.74955051  0.52185281  0.32981210     0.11300
C2047       C  0.75417464  0.97570276  0.19603161    -0.14800
C2048       C  0.77493272  0.95310839  0.18765802     0.07400
C2049       C  0.77744646  0.94517462  0.15944953    -0.14800
C2050       C  0.75939611  0.95996071  0.13984763    -0.14800
C2051       C  0.73855354  0.98368661  0.14764647     0.07400
C2052       C  0.73643493  0.99073218  0.17659637    -0.14800
H2053       H  0.75155855  0.98170235  0.21786485     0.11300
H2054       H  0.79305040  0.92720812  0.15262891     0.11300
H2055       H  0.76196556  0.95305157  0.11823657     0.11300
H2056       H  0.72103930  0.00778121  0.18508860     0.11300
C2057       C  0.72433854  0.73843320  0.35550170    -0.14800
C2058       C  0.75507519  0.73307327  0.35694898     0.07400
C2059       C  0.76818721  0.71345896  0.33631148    -0.14800
C2060       C  0.75112454  0.69756569  0.31681587    -0.14800
C2061       C  0.72054410  0.70213254  0.31628258     0.07400
C2062       C  0.70735450  0.72304308  0.33551126    -0.14800
H2063       H  0.71325370  0.75527822  0.36900516     0.11300
H2064       H  0.79186860  0.70994663  0.33572680     0.11300
H2065       H  0.76200342  0.68236026  0.30163675     0.11300
H2066       H  0.68386015  0.72768815  0.33496790     0.11300
C2067       C  0.73668972  0.75035549  0.41730524    -0.14800
C2068       C  0.75791458  0.76747009  0.40139280     0.07400
C2069       C  0.76352445  0.79944356  0.40901910    -0.14800
C2070       C  0.74596084  0.81472271  0.42898721    -0.14800
C2071       C  0.72293106  0.79828330  0.44271787     0.07400
C2072       C  0.71901433  0.76567547  0.43722860    -0.14800
H2073       H  0.73291595  0.72526264  0.41339341     0.11300
H2074       H  0.78140659  0.81301410  0.39956914     0.11300
H2075       H  0.75047677  0.83951176  0.43363225     0.11300
H2076       H  0.70212555  0.75197647  0.44815610     0.11300
C2077       C  0.77439619  0.79835205  0.34638840    -0.14800
C2078       C  0.79179416  0.77460185  0.35872865     0.07400
C2079       C  0.82114956  0.77093614  0.34878116    -0.14800
C2080       C  0.83199401  0.78967989  0.32642974    -0.14800
C2081       C  0.81353981  0.81196804  0.31359561     0.07400
C2082       C  0.78509500  0.81674896  0.32457829    -0.14800
H2083       H  0.75157892  0.80164301  0.35283603     0.11300
H2084       H  0.83510346  0.75246541  0.35695683     0.11300
H2085       H  0.85414573  0.78571179  0.31837511     0.11300
H2086       H  0.77049200  0.83422365  0.31565420     0.11300
C2087       C  0.81721039  0.73754824  0.41174138    -0.14800
C2088       C  0.79535314  0.72650056  0.39327944     0.07400
C2089       C  0.78794802  0.69372643  0.39435735    -0.14800
C2090       C  0.80043205  0.67356292  0.41364745    -0.14800
C2091       C  0.82006845  0.68520858  0.43335354     0.07400
C2092       C  0.82942831  0.71709051  0.43169068    -0.14800
H2093       H  0.82305250  0.76259553  0.41215243     0.11300
H2094       H  0.77042105  0.68350573  0.38226946     0.11300
H2095       H  0.79268606  0.64908144  0.41471436     0.11300
H2096       H  0.84424533  0.72671611  0.44704885     0.11300
C2097       C  0.74951564  0.80366400  0.06340077    -0.14800
C2098       C  0.71867962  0.80141100  0.06429186     0.07400
C2099       C  0.70484856  0.78277999  0.08500824    -0.14800
C2100       C  0.72152555  0.76703043  0.10481029    -0.14800
C2101       C  0.75263384  0.76974300  0.10460440     0.07400
C2102       C  0.76622611  0.78748366  0.08282659    -0.14800
H2103       H  0.76079212  0.81718925  0.04719392     0.11300
H2104       H  0.68104133  0.78004044  0.08572639     0.11300
H2105       H  0.70975802  0.75183371  0.11937429     0.11300
H2106       H  0.79007811  0.78904598  0.08114788     0.11300
C2107       C  0.73611244  0.75230843  0.16617014    -0.14800
C2108       C  0.75492796  0.73434692  0.14855404     0.07400
C2109       C  0.75865752  0.70174015  0.15503358    -0.14800
C2110       C  0.74214699  0.68721692  0.17627962    -0.14800
C2111       C  0.72193434  0.70485216  0.19232946     0.07400
C2112       C  0.71936919  0.73767450  0.18731426    -0.14800
H2113       H  0.73378327  0.77770626  0.16298002     0.11300
H2114       H  0.77459572  0.68711493  0.14406653     0.11300
H2115       H  0.74525959  0.66203486  0.18010527     0.11300
H2116       H  0.70457194  0.75214467  0.19987148     0.11300
C2117       C  0.81417272  0.76164108  0.15947055    -0.14800
C2118       C  0.79409468  0.77395733  0.13999445     0.07400
C2119       C  0.78964214  0.80731428  0.14002934    -0.14800
C2120       C  0.80214890  0.82670811  0.16002690    -0.14800
C2121       C  0.81886132  0.81371541  0.18135666     0.07400
C2122       C  0.82626908  0.78130795  0.18014650    -0.14800
H2123       H  0.81814925  0.73624984  0.16036112     0.11300
H2124       H  0.77412192  0.81887244  0.12667588     0.11300
H2125       H  0.79648339  0.85177675  0.16021073     0.11300
H2126       H  0.83925284  0.77071883  0.19639491     0.11300
C2127       C  0.81722051  0.72694193  0.09659579    -0.14800
C2128       C  0.78724120  0.72647175  0.10517709     0.07400
C2129       C  0.76811744  0.70473305  0.09204947    -0.14800
C2130       C  0.77798489  0.68475702  0.07110481    -0.14800
C2131       C  0.80748005  0.68570916  0.06183569     0.07400
C2132       C  0.82724306  0.70666355  0.07505631    -0.14800
H2133       H  0.83258776  0.74376166  0.10547295     0.11300
H2134       H  0.74484531  0.70385931  0.09764160     0.11300
H2135       H  0.76195754  0.66899873  0.06172116     0.11300
H2136       H  0.85016085  0.70792566  0.06832446     0.11300
C2137       C  0.77173129  0.74864639  0.62479117    -0.03900
C2138       C  0.77367040  0.75285203  0.87673113    -0.03900
Fe2139     Fe  0.79213626  0.87959456  0.74665933     1.65800
Fe2140     Fe  0.84070701  0.93902466  0.74818106     1.73200
Fe2141     Fe  0.86524732  0.86263447  0.74732569     1.54400
O2142       O  0.84692978  0.83961585  0.78185449    -0.83100
O2143       O  0.87949311  0.93516158  0.72553098    -0.81400
O2144       O  0.79960722  0.83993388  0.77053161    -0.85600
O2145       O  0.80060356  0.85505314  0.71080378    -0.80500
O2146       O  0.89048473  0.88998300  0.77446549    -0.82300
O2147       O  0.81791509  0.94651550  0.71186004    -0.85000
C2148       C  0.82075754  0.83523783  0.70457639     0.95800
C2149       C  0.82019240  0.83182339  0.78656953     1.03200
O2150       O  0.83296014  0.89364331  0.74715351    -1.14000
O2151       O  0.80347861  0.94981363  0.77245749    -0.76400
O2152       O  0.78205630  0.90360576  0.78309937    -0.79900
O2153       O  0.84403318  0.83213004  0.71897294    -0.80600
C2154       C  0.78588480  0.93312435  0.78744422     0.94700
O2155       O  0.77804862  0.91736092  0.72229315    -0.78600
O2156       O  0.86401227  0.93365472  0.78376551    -0.83700
C2157       C  0.89413847  0.91375719  0.71288057     0.97300
C2158       C  0.88654850  0.91629916  0.78720448     1.03200
O2159       O  0.88716713  0.88436903  0.71403208    -0.79400
C2160       C  0.79129145  0.93844910  0.70772439     1.01500
Fe2161     Fe  0.79001514  0.61673390  0.49513235     1.65800
Fe2162     Fe  0.84030367  0.56012396  0.99402959     1.73200
Fe2163     Fe  0.86535385  0.63697606  0.99956318     1.54400
O2164       O  0.85079153  0.66405630  0.96596180    -0.83100
O2165       O  0.87148999  0.55846273  0.52366591    -0.81400
O2166       O  0.80199933  0.65614258  0.96726469    -0.85600
O2167       O  0.79529910  0.64434515  0.52946881    -0.80500
O2168       O  0.89283927  0.61172571  0.97235874    -0.82300
O2169       O  0.80935630  0.54873333  0.53072215    -0.85000
C2170       C  0.81576196  0.66153525  0.53926195     0.95800
C2171       C  0.82499129  0.66909068  0.95689102     1.03200
O2172       O  0.83249495  0.60577530  0.99579861    -1.14000
O2173       O  0.80761025  0.54913885  0.96608597    -0.76400
O2174       O  0.78282830  0.59340630  0.95836436    -0.79900
O2175       O  0.84191095  0.66175447  0.52896071    -0.80600
C2176       C  0.78932076  0.56499349  0.95214865     0.94700
O2177       O  0.77260422  0.58176640  0.52153427    -0.78600
O2178       O  0.86899184  0.56672156  0.96096780    -0.83700
C2179       C  0.88640355  0.57883749  0.53687890     0.97300
C2180       C  0.89068107  0.58595313  0.95855215     1.03200
O2181       O  0.88257028  0.60862060  0.53408193    -0.79400
C2182       C  0.78372299  0.55948098  0.53581749     1.01500
C2183       C  0.97612194  0.97460233  0.85540124     0.85000
C2184       C  0.99659078  0.99794976  0.83965693    -0.55200
C2185       C  0.01340640  0.51745231  0.85963540     0.08000
C2186       C  0.00535519  0.51171508  0.89042789     0.18900
C2187       C  0.99686784  0.95561375  0.87415451    -0.55900
C2188       C  0.01375401  0.97426530  0.89127189     0.08100
C2189       C  0.95823454  0.99527786  0.87553471    -0.55500
C2190       C  0.97155063  0.51637328  0.89168283     0.08600
H2191       H  0.00176731  0.49953142  0.81932235     0.13100
H2192       H  0.01734155  0.52769930  0.90478244    -0.01100
H2193       H  0.99894154  0.92997438  0.87342353     0.13500
H2194       H  0.93280648  0.49663602  0.87284945     0.13200
Fe2195     Fe  0.19604311  0.88052811  0.50506363     1.65800
Fe2196     Fe  0.14915302  0.94213917  0.50620874     1.73200
Fe2197     Fe  0.12221638  0.86553789  0.50288483     1.54400
O2198       O  0.14145352  0.84225332  0.96820812    -0.83100
O2199       O  0.11332928  0.93747599  0.53272333    -0.81400
O2200       O  0.18948370  0.84620625  0.97637429    -0.85600
O2201       O  0.18644965  0.85287153  0.53894402    -0.80500
O2202       O  0.09958339  0.89463081  0.97510523    -0.82300
O2203       O  0.17435495  0.94813391  0.54085918    -0.85000
C2204       C  0.16538269  0.83387884  0.54485772     0.95800
C2205       C  0.16821821  0.83578746  0.96213787     1.03200
O2206       O  0.15557566  0.89608527  0.50465103    -1.14000
O2207       O  0.18455107  0.95400850  0.97720853    -0.76400
O2208       O  0.21080926  0.90975838  0.97135090    -0.79900
O2209       O  0.14166781  0.83283134  0.53078056    -0.80600
C2210       C  0.20513063  0.93844162  0.96517912     0.94700
O2211       O  0.21126169  0.91503373  0.53185617    -0.78600
O2212       O  0.12222075  0.94188468  0.97245923    -0.83700
C2213       C  0.09811802  0.91520895  0.54374758     0.97300
C2214       C  0.10205166  0.92273584  0.96516451     1.03200
O2215       O  0.10061101  0.88610650  0.53675673    -0.79400
C2216       C  0.19997415  0.93786719  0.54551148     1.01500
Fe2217     Fe  0.19727841  0.61786493  0.75540511     1.65800
Fe2218     Fe  0.14995334  0.55567448  0.75607419     1.73200
Fe2219     Fe  0.12335917  0.63237877  0.75336980     1.54400
O2220       O  0.14283718  0.66467102  0.78161118    -0.83100
O2221       O  0.12150473  0.55694732  0.72343504    -0.81400
O2222       O  0.18775922  0.64536116  0.78929934    -0.85600
O2223       O  0.18913595  0.65446957  0.72846404    -0.80500
O2224       O  0.10171749  0.61097170  0.78709395    -0.82300
O2225       O  0.18416521  0.54583657  0.72783374    -0.85000
C2226       C  0.16818619  0.66405620  0.71352856     0.95800
C2227       C  0.16668984  0.66399498  0.79541411     1.03200
O2228       O  0.15665654  0.60189456  0.75482600    -1.14000
O2229       O  0.17693596  0.54840722  0.78935778    -0.76400
O2230       O  0.21278312  0.58367702  0.78202508    -0.79900
O2231       O  0.14143265  0.65637107  0.71872664    -0.80600
C2232       C  0.20224824  0.55952889  0.79450097     0.94700
O2233       O  0.20979925  0.59088366  0.72173185    -0.78600
O2234       O  0.11576730  0.56002653  0.78449124    -0.83700
C2235       C  0.10137297  0.57590124  0.71611524     0.97300
C2236       C  0.10030194  0.58212072  0.79523377     1.03200
O2237       O  0.09904201  0.60400593  0.72600016    -0.79400
C2238       C  0.20445129  0.56202280  0.71563242     1.01500
C2239       C  0.21533146  0.75277304  0.87468308    -0.03900
C2240       C  0.21484386  0.74785840  0.62543904    -0.03900
C2241       C  0.97588725  0.52177835  0.60599743     0.85000
C2242       C  0.95831088  0.49896420  0.62478474    -0.55200
C2243       C  0.97575983  0.98178953  0.64629015     0.08000
C2244       C  0.00884137  0.98709306  0.64019469     0.18900
C2245       C  0.99532587  0.54118928  0.62590847    -0.55900
C2246       C  0.01265172  0.52289930  0.64271405     0.08100
C2247       C  0.99788201  0.50042581  0.59007287    -0.55500
C2248       C  0.01206958  0.98071081  0.60878699     0.08600
H2249       H  0.93384220  0.99883847  0.63273572     0.13100
H2250       H  0.02302881  0.97177411  0.65309396    -0.01100
H2251       H  0.99677508  0.56692217  0.62565821     0.13500
H2252       H  0.99990227  0.49988776  0.56752383     0.13200
Fe2253     Fe  0.29271429  0.87136306  0.74664549     1.65800
Fe2254     Fe  0.33961084  0.81060774  0.74725503     1.73200
Fe2255     Fe  0.36625338  0.88695909  0.74953460     1.54400
O2256       O  0.34711006  0.91858969  0.72100728    -0.83100
O2257       O  0.36302825  0.81355785  0.78299493    -0.81400
O2258       O  0.30294244  0.89727234  0.71201231    -0.85600
O2259       O  0.30042728  0.90967479  0.77227774    -0.80500
O2260       O  0.38881768  0.86574201  0.71651109    -0.82300
O2261       O  0.30210903  0.79976453  0.77117542    -0.85000
C2262       C  0.32106708  0.91864130  0.78803841     0.95800
C2263       C  0.32392246  0.91649908  0.70633634     1.03200
O2264       O  0.33313030  0.85638980  0.74777921    -1.14000
O2265       O  0.31660073  0.80444718  0.71074002    -0.76400
O2266       O  0.27813121  0.83506116  0.72095869    -0.79900
O2267       O  0.34770858  0.91046872  0.78374556    -0.80600
C2268       C  0.29017538  0.81305976  0.70669825     0.94700
O2269       O  0.28044258  0.84574471  0.78139373    -0.78600
O2270       O  0.37855355  0.81454262  0.72478365    -0.83700
C2271       C  0.38505954  0.83120951  0.78839874     0.97300
C2272       C  0.39441640  0.83625649  0.71370847     1.03200
O2273       O  0.38946567  0.85834608  0.77706835    -0.79400
C2274       C  0.28368779  0.81610192  0.78536411     1.01500
Fe2275     Fe  0.29298880  0.63021318  0.99537232     1.65800
Fe2276     Fe  0.33855611  0.69229724  0.49781605     1.73200
Fe2277     Fe  0.36561179  0.61651113  0.49892787     1.54400
O2278       O  0.34719854  0.59279427  0.53304640    -0.83100
O2279       O  0.37843001  0.68884296  0.97439573    -0.81400
O2280       O  0.29979097  0.59260589  0.52185728    -0.85600
O2281       O  0.30346037  0.60439361  0.96064177    -0.80500
O2282       O  0.38874738  0.64523725  0.52687225    -0.82300
O2283       O  0.31655880  0.69840406  0.96063659    -0.85000
C2284       C  0.32444448  0.58530753  0.95523104     0.95800
C2285       C  0.32057794  0.58449533  0.53768585     1.03200
O2286       O  0.33225116  0.64637853  0.49744709    -1.14000
O2287       O  0.30099126  0.70223650  0.52160717    -0.76400
O2288       O  0.27914670  0.65588052  0.53087856    -0.79900
O2289       O  0.34757215  0.58387065  0.97002925    -0.80600
C2290       C  0.28245999  0.68545381  0.53539937     0.94700
O2291       O  0.27843826  0.66634860  0.96979768    -0.78600
O2292       O  0.36168329  0.68903783  0.53370286    -0.83700
C2293       C  0.39412854  0.66754930  0.96275053     0.97300
C2294       C  0.38384330  0.67181713  0.53895300     1.03200
O2295       O  0.38861167  0.63793034  0.96515755    -0.79400
C2296       C  0.29029615  0.68916938  0.95624117     1.01500
C2297       C  0.27776404  0.49676304  0.87539745    -0.03900
C2298       C  0.27500849  0.50253335  0.62625846    -0.03900
C2299       C  0.47402363  0.77338864  0.85741327     0.85000
C2300       C  0.45752380  0.75162507  0.87797629    -0.55200
C2301       C  0.47529530  0.73354216  0.89388695     0.08000
C2302       C  0.50838332  0.73940293  0.88872486     0.18900
C2303       C  0.49473963  0.79347852  0.87559774    -0.55900
C2304       C  0.51279571  0.77586724  0.89218805     0.08100
C2305       C  0.49482091  0.75113201  0.84106365    -0.55500
C2306       C  0.51270914  0.73329959  0.85741761     0.08600
H2307       H  0.43356587  0.75010175  0.87948005     0.13100
H2308       H  0.52224146  0.72413284  0.90195933    -0.01100
H2309       H  0.49599468  0.81915995  0.87488547     0.13500
H2310       H  0.49537135  0.74965875  0.81849792     0.13200
C2311       C  0.71601956  0.49835681  0.87204060    -0.03900
Fe2312     Fe  0.69598913  0.63001956  0.75406583     1.65800
Fe2313     Fe  0.64918579  0.69285981  0.75531432     1.73200
Fe2314     Fe  0.62125155  0.61640466  0.75164889     1.54400
O2315       O  0.63928133  0.59128106  0.71767093    -0.83100
O2316       O  0.61586855  0.68847918  0.78431382    -0.81400
O2317       O  0.68767907  0.59631392  0.72388898    -0.85600
O2318       O  0.68601719  0.59912551  0.78624899    -0.80500
O2319       O  0.59821574  0.64457150  0.72363308    -0.82300
O2320       O  0.67717215  0.69985879  0.78775938    -0.85000
C2321       C  0.66355494  0.58240723  0.79284686     0.95800
C2322       C  0.66589888  0.58533187  0.71054322     1.03200
O2323       O  0.65536951  0.64644111  0.75360458    -1.14000
O2324       O  0.68224997  0.70313313  0.72648323    -0.76400
O2325       O  0.71005416  0.65973357  0.72240923    -0.79900
O2326       O  0.63906034  0.58451053  0.78036075    -0.80600
C2327       C  0.70353801  0.68794119  0.71534072     0.94700
O2328       O  0.71086359  0.66189436  0.78347332    -0.78600
O2329       O  0.61981070  0.69239575  0.72345983    -0.83700
C2330       C  0.59894883  0.66678584  0.79379096     0.97300
C2331       C  0.60027750  0.67318455  0.71495133     1.03200
O2332       O  0.59906925  0.63831053  0.78468604    -0.79400
C2333       C  0.70111302  0.68709787  0.79477110     1.01500
C2334       C  0.71271173  0.49898485  0.62591848    -0.03900
Fe2335     Fe  0.69665730  0.87054174  0.50192113     1.65800
Fe2336     Fe  0.64897914  0.80902719  0.50314327     1.73200
Fe2337     Fe  0.62286031  0.88485984  0.50227548     1.54400
O2338       O  0.64393148  0.91697955  0.52981201    -0.83100
O2339       O  0.62107091  0.81211366  0.97197892    -0.81400
O2340       O  0.68856682  0.89664170  0.53710685    -0.85600
O2341       O  0.68657264  0.90870438  0.97273577    -0.80500
O2342       O  0.60246990  0.86388800  0.53671460    -0.82300
O2343       O  0.68333648  0.80021410  0.97702766    -0.85000
C2344       C  0.66370865  0.91902774  0.96087273     0.95800
C2345       C  0.66780589  0.91546465  0.54363081     1.03200
O2346       O  0.65600257  0.85484010  0.50240122    -1.14000
O2347       O  0.67385569  0.80298416  0.53771733    -0.76400
O2348       O  0.71199282  0.83456899  0.52744893    -0.79900
O2349       O  0.63770521  0.91200040  0.96923702    -0.80600
C2350       C  0.70007424  0.81221999  0.54157823     0.94700
O2351       O  0.70743904  0.84538881  0.96801110    -0.78600
O2352       O  0.61289890  0.81263305  0.52943510    -0.83700
C2353       C  0.60035322  0.83067048  0.96534696     0.97300
C2354       C  0.59897101  0.83446508  0.54220256     1.03200
O2355       O  0.59719798  0.85838073  0.97596818    -0.79400
C2356       C  0.70284962  0.81606285  0.96359152     1.01500
C2357       C  0.47229073  0.73011921  0.60936303     0.85000
C2358       C  0.49327591  0.75168349  0.59222370    -0.55200
C2359       C  0.51190496  0.76967594  0.60786454     0.08000
C2360       C  0.50810511  0.76448830  0.63936859     0.18900
C2361       C  0.49292500  0.71025220  0.62764272    -0.55900
C2362       C  0.51177924  0.72810931  0.64345350     0.08100
C2363       C  0.45669526  0.75263585  0.62976092    -0.55500
C2364       C  0.47518390  0.77090630  0.64504151     0.08600
H2365       H  0.49351162  0.75247478  0.56963182     0.13100
H2366       H  0.52279427  0.77968282  0.65206721    -0.01100
H2367       H  0.49355530  0.68451563  0.62760943     0.13500
H2368       H  0.43279788  0.75443400  0.63167170     0.13200
C2369       C  0.54765645  0.83243114  0.56180823    -0.14800
C2370       C  0.57749772  0.82399629  0.56361494     0.07400
C2371       C  0.58573931  0.80022518  0.58245121    -0.14800
C2372       C  0.56436349  0.78392982  0.59820532    -0.14800
C2373       C  0.53441192  0.79085310  0.59509260     0.07400
C2374       C  0.52615352  0.81565315  0.57726798    -0.14800
H2375       H  0.54081997  0.85021362  0.54695782     0.11300
H2376       H  0.60861996  0.79302276  0.58376452     0.11300
H2377       H  0.57108879  0.76434834  0.61119476     0.11300
H2378       H  0.50303010  0.82108398  0.57449944     0.11300
C2379       C  0.67730916  0.98937975  0.58800669    -0.14800
C2380       C  0.69747260  0.97853749  0.60819034     0.07400
C2381       C  0.69926306  0.94507108  0.61121815    -0.14800
C2382       C  0.68820196  0.92453483  0.59089110    -0.14800
C2383       C  0.67292510  0.93643529  0.56800125     0.07400
C2384       C  0.66577755  0.96880159  0.56778092    -0.14800
H2385       H  0.67068989  0.01392207  0.58719671     0.11300
H2386       H  0.71005770  0.93411537  0.62851118     0.11300
H2387       H  0.69248817  0.89923760  0.59258489     0.11300
H2388       H  0.65267384  0.97850689  0.55120132     0.11300
C2389       C  0.58280413  0.71591076  0.68296799    -0.14800
C2390       C  0.57839780  0.68572642  0.69512625     0.07400
C2391       C  0.55178726  0.66947078  0.69021534    -0.14800
C2392       C  0.53007806  0.68322634  0.67368344    -0.14800
C2393       C  0.53449849  0.71353112  0.66160355     0.07400
C2394       C  0.56113500  0.72965250  0.66659704    -0.14800
H2395       H  0.60295131  0.72927071  0.68641438     0.11300
H2396       H  0.54741561  0.64648722  0.69970122     0.11300
H2397       H  0.50959743  0.67030452  0.67087960     0.11300
H2398       H  0.56553701  0.75290344  0.65783174     0.11300
C2399       C  0.69904585  0.57347365  0.67029930    -0.14800
C2400       C  0.67311294  0.56596067  0.68527885     0.07400
C2401       C  0.65675266  0.53898412  0.67710856    -0.14800
C2402       C  0.66763903  0.51862231  0.65582977    -0.14800
C2403       C  0.69492616  0.52510739  0.64197668     0.07400
C2404       C  0.70978384  0.55356074  0.64934515    -0.14800
H2405       H  0.71206430  0.59423089  0.67577061     0.11300
H2406       H  0.63668328  0.53249747  0.68834694     0.11300
H2407       H  0.65586693  0.49665227  0.65174383     0.11300
H2408       H  0.73122436  0.55947685  0.64045498     0.11300
C2409       C  0.68535960  0.50651121  0.82759189    -0.14800
C2410       C  0.69375892  0.51764679  0.85421596     0.07400
C2411       C  0.68187996  0.54712934  0.86279274    -0.14800
C2412       C  0.67023178  0.56820086  0.84307794    -0.14800
C2413       C  0.66718375  0.55868925  0.81523210     0.07400
C2414       C  0.67282367  0.52699181  0.80819684    -0.14800
H2415       H  0.69070324  0.48261848  0.82077605     0.11300
H2416       H  0.68419536  0.55518993  0.88402711     0.11300
H2417       H  0.66497266  0.59236322  0.84924415     0.11300
H2418       H  0.66977781  0.51876406  0.78707264     0.11300
C2419       C  0.67474934  0.92598337  0.90997227    -0.14800
C2420       C  0.66826564  0.93958223  0.93607230     0.07400
C2421       C  0.67021064  0.97269368  0.93891543    -0.14800
C2422       C  0.68129665  0.99145633  0.91693200    -0.14800
C2423       C  0.69233731  0.97741767  0.89204609     0.07400
C2424       C  0.68578730  0.94484912  0.88790329    -0.14800
H2425       H  0.67250862  0.90049948  0.90702749     0.11300
H2426       H  0.66485256  0.98384980  0.95867063     0.11300
H2427       H  0.68407160  0.01677780  0.92045595     0.11300
H2428       H  0.69038655  0.93345291  0.86816227     0.11300
C2429       C  0.56456633  0.71506310  0.85115582    -0.14800
C2430       C  0.53454604  0.71094560  0.84554780     0.07400
C2431       C  0.52588349  0.68784740  0.82613830    -0.14800
C2432       C  0.54714278  0.67045869  0.81123368    -0.14800
C2433       C  0.57725879  0.67660001  0.81514745     0.07400
C2434       C  0.58581436  0.69821728  0.83587118    -0.14800
H2435       H  0.57168943  0.73310685  0.86565940     0.11300
H2436       H  0.50273103  0.68440117  0.82159954     0.11300
H2437       H  0.54010534  0.65432856  0.79501599     0.11300
H2438       H  0.60897384  0.70357706  0.83893228     0.11300
C2439       C  0.53241894  0.82226051  0.92044215    -0.14800
C2440       C  0.53526169  0.79065674  0.91068442     0.07400
C2441       C  0.56010801  0.77322768  0.91851229    -0.14800
C2442       C  0.58140656  0.78673365  0.93547067    -0.14800
C2443       C  0.57858077  0.81815237  0.94533576     0.07400
C2444       C  0.55387570  0.83586808  0.93752850    -0.14800
H2445       H  0.51333147  0.83640992  0.91551210     0.11300
H2446       H  0.56358193  0.74911389  0.91148088     0.11300
H2447       H  0.60004006  0.77216869  0.94110786     0.11300
H2448       H  0.55080254  0.85996315  0.94505719     0.11300
C2449       C  0.43649024  0.70454157  0.95760576    -0.14800
C2450       C  0.42020298  0.67879936  0.94691256     0.07400
C2451       C  0.42712994  0.66709006  0.92031442    -0.14800
C2452       C  0.44794316  0.68322077  0.90356145    -0.14800
C2453       C  0.46235538  0.71055419  0.91362076     0.07400
C2454       C  0.45754211  0.72022412  0.94109506    -0.14800
H2455       H  0.43168371  0.71366982  0.97827227     0.11300
H2456       H  0.41480471  0.64730542  0.91174098     0.11300
H2457       H  0.45113073  0.67593414  0.88210548     0.11300
H2458       H  0.46810610  0.74157739  0.94892200     0.11300
C2459       C  0.40911126  0.71825847  0.55951814    -0.14800
C2460       C  0.40575704  0.68506698  0.55816572     0.07400
C2461       C  0.42470038  0.66569271  0.57346894    -0.14800
C2462       C  0.44642938  0.67946745  0.59020832    -0.14800
C2463       C  0.44992037  0.71291450  0.59135582     0.07400
C2464       C  0.43098028  0.73189423  0.57558863    -0.14800
H2465       H  0.39523842  0.73384981  0.54750514     0.11300
H2466       H  0.42264281  0.63999244  0.57253624     0.11300
H2467       H  0.46020899  0.66365266  0.60187048     0.11300
H2468       H  0.43302639  0.75763148  0.57590132     0.11300
C2469       C  0.30269447  0.57518683  0.90934793    -0.14800
C2470       C  0.32044767  0.56418628  0.93079706     0.07400
C2471       C  0.32975676  0.53229805  0.93016860    -0.14800
C2472       C  0.31868274  0.51115340  0.90999018    -0.14800
C2473       C  0.29788743  0.52142149  0.89026885     0.07400
C2474       C  0.29137733  0.55437010  0.88974798    -0.14800
H2475       H  0.29548531  0.59976884  0.90898813     0.11300
H2476       H  0.34355004  0.52315098  0.94647896     0.11300
H2477       H  0.32416089  0.48613269  0.91139986     0.11300
H2478       H  0.27514687  0.56441134  0.87622061     0.11300
C2479       C  0.33112842  0.54448412  0.57602535    -0.14800
C2480       C  0.31209278  0.56583633  0.56275204     0.07400
C2481       C  0.28324140  0.56929200  0.57319345    -0.14800
C2482       C  0.27281501  0.55048509  0.59487349    -0.14800
C2483       C  0.29082305  0.52749937  0.60750907     0.07400
C2484       C  0.32054305  0.52527512  0.59818076    -0.14800
H2485       H  0.35360864  0.54156734  0.56845293     0.11300
H2486       H  0.26814703  0.58605016  0.56397321     0.11300
H2487       H  0.24977278  0.55273952  0.60095489     0.11300
H2488       H  0.33508065  0.50753315  0.60665214     0.11300
C2489       C  0.45852418  0.78507064  0.69242183    -0.14800
C2490       C  0.46296529  0.79431149  0.66475412     0.07400
C2491       C  0.44827714  0.82122661  0.65455796    -0.14800
C2492       C  0.42745209  0.83715394  0.67128726    -0.14800
C2493       C  0.42077141  0.82567675  0.69803296     0.07400
C2494       C  0.43744180  0.80054666  0.70892021    -0.14800
H2495       H  0.46925218  0.76402660  0.70039098     0.11300
H2496       H  0.45112345  0.82818546  0.63297701     0.11300
H2497       H  0.41483592  0.85646262  0.66255728     0.11300
H2498       H  0.43280858  0.79159918  0.72969426     0.11300
C2499       C  0.41085127  0.78480442  0.80781926    -0.14800
C2500       C  0.40748971  0.81796905  0.80683248     0.07400
C2501       C  0.42705183  0.83746103  0.82153702    -0.14800
C2502       C  0.44912070  0.82383743  0.83770846    -0.14800
C2503       C  0.45228957  0.79041183  0.83890687     0.07400
C2504       C  0.43307936  0.77130510  0.82332421    -0.14800
H2505       H  0.39659723  0.76914390  0.79609263     0.11300
H2506       H  0.42510989  0.86315298  0.82070953     0.11300
H2507       H  0.46318097  0.83977466  0.84911895     0.11300
H2508       H  0.43495267  0.74557594  0.82363730     0.11300
C2509       C  0.28306581  0.93520444  0.82234254    -0.14800
C2510       C  0.31226919  0.93812434  0.81258798     0.07400
C2511       C  0.33129669  0.95959059  0.82611128    -0.14800
C2512       C  0.32053655  0.97896856  0.84807879    -0.14800
C2513       C  0.29065530  0.97677920  0.85701035     0.07400
C2514       C  0.27251486  0.95410429  0.84382942    -0.14800
H2515       H  0.26785043  0.91853580  0.81291819     0.11300
H2516       H  0.35400408  0.96225675  0.81903152     0.11300
H2517       H  0.33517640  0.99654239  0.85694785     0.11300
H2518       H  0.24936141  0.95186413  0.84959217     0.11300
C2519       C  0.30251832  0.92498711  0.66027303    -0.14800
C2520       C  0.31973996  0.93705280  0.68176110     0.07400
C2521       C  0.32765100  0.96943927  0.68136458    -0.14800
C2522       C  0.31558767  0.98994416  0.66140411    -0.14800
C2523       C  0.29506783  0.97851076  0.64180825     0.07400
C2524       C  0.29002064  0.94519832  0.64101472    -0.14800
H2525       H  0.29640761  0.89997541  0.65982706     0.11300
H2526       H  0.34099135  0.97935035  0.69775872     0.11300
H2527       H  0.32004078  0.01525542  0.66292407     0.11300
H2528       H  0.27415479  0.93421174  0.62753758     0.11300
C2529       C  0.22354185  0.78315924  0.66787372    -0.14800
C2530       C  0.23605425  0.76576990  0.64548271     0.07400
C2531       C  0.26725519  0.76302798  0.64449152    -0.14800
C2532       C  0.28493417  0.77846006  0.66411215    -0.14800
C2533       C  0.27206202  0.79674842  0.68548498     0.07400
C2534       C  0.24114941  0.79876187  0.68715229    -0.14800
H2535       H  0.19977038  0.78494596  0.67019428     0.11300
H2536       H  0.27837059  0.74821448  0.62929653     0.11300
H2537       H  0.30869776  0.77589191  0.66265204     0.11300
H2538       H  0.23039668  0.81204815  0.70373621     0.11300
C2539       C  0.25028257  0.74865561  0.58329298    -0.14800
C2540       C  0.23193767  0.73066427  0.60148715     0.07400
C2541       C  0.22832646  0.69785027  0.59546190    -0.14800
C2542       C  0.24464476  0.68325760  0.57411885    -0.14800
C2543       C  0.26432089  0.70107764  0.55740315     0.07400
C2544       C  0.26651710  0.73407423  0.56190302    -0.14800
H2545       H  0.25263721  0.77412973  0.58619299     0.11300
H2546       H  0.21270952  0.68308801  0.60686467     0.11300
H2547       H  0.24175967  0.65792607  0.57070477     0.11300
H2548       H  0.28096470  0.74872218  0.54899656     0.11300
C2549       C  0.26736834  0.74105404  0.89559579    -0.14800
C2550       C  0.23638470  0.73618400  0.89541064     0.07400
C2551       C  0.22378330  0.71764318  0.91710519    -0.14800
C2552       C  0.24135069  0.70209934  0.93627132    -0.14800
C2553       C  0.27218604  0.70569265  0.93538078     0.08600
C2554       C  0.28498028  0.72584313  0.91520200    -0.14800
H2555       H  0.27828035  0.75719406  0.88122358     0.11300
H2556       H  0.20005218  0.71451673  0.91869895     0.11300
H2557       H  0.23062159  0.68752188  0.95209310     0.11300
H2558       H  0.30862905  0.72987043  0.91455276     0.11300
C2559       C  0.25269650  0.75251866  0.83395568    -0.14800
C2560       C  0.23243865  0.76983814  0.85061412     0.07400
C2561       C  0.22706120  0.80183980  0.84304730    -0.14800
C2562       C  0.24365636  0.81674820  0.82199855    -0.14800
C2563       C  0.26542477  0.79993563  0.80707359     0.07400
C2564       C  0.26934053  0.76745166  0.81291142    -0.14800
H2565       H  0.25633896  0.72746218  0.83792715     0.11300
H2566       H  0.20992261  0.81568395  0.85314760     0.11300
H2567       H  0.23932315  0.84152706  0.81738925     0.11300
H2568       H  0.28542604  0.75352203  0.80133789     0.11300
C2569       C  0.26910834  0.53152240  0.83285676    -0.14800
C2570       C  0.25661967  0.51346929  0.85493841     0.07400
C2571       C  0.22559029  0.50906110  0.85541233    -0.14800
C2572       C  0.20787793  0.52405924  0.83589616    -0.14800
C2573       C  0.22060958  0.54355637  0.81523457     0.07400
C2574       C  0.25139834  0.54688949  0.81375177    -0.14800
H2575       H  0.29284880  0.53431868  0.83088121     0.11300
H2576       H  0.21468191  0.49338275  0.87016907     0.11300
H2577       H  0.18418399  0.52039287  0.83698151     0.11300
H2578       H  0.26190330  0.56103164  0.79749898     0.11300
C2579       C  0.24394740  0.56482770  0.67866814    -0.14800
C2580       C  0.22292344  0.54676514  0.69369405     0.07400
C2581       C  0.22062208  0.51400043  0.68819557    -0.14800
C2582       C  0.23805911  0.49998677  0.66730287    -0.14800
C2583       C  0.25744169  0.51851152  0.65047492     0.07400
C2584       C  0.26124770  0.55088041  0.65775863    -0.14800
H2585       H  0.24711707  0.58992519  0.68302761     0.11300
H2586       H  0.20532186  0.49914357  0.70000114     0.11300
H2587       H  0.23561961  0.47468379  0.66349350     0.11300
H2588       H  0.27763754  0.56579873  0.64751934     0.11300
C2589       C  0.08236502  0.53283734  0.68493519    -0.14800
C2590       C  0.07923828  0.56363912  0.69615796     0.07400
C2591       C  0.05379620  0.58103337  0.68980890    -0.14800
C2592       C  0.03203359  0.56782368  0.67277881    -0.14800
C2593       C  0.03520181  0.53690807  0.66163204     0.07400
C2594       C  0.06068259  0.51967622  0.66805745    -0.14800
H2595       H  0.10155373  0.51855863  0.68940993     0.11300
H2596       H  0.05041450  0.60460333  0.69841527     0.11300
H2597       H  0.01251010  0.58172297  0.66879761     0.11300
H2598       H  0.06430761  0.49603473  0.65988924     0.11300
C2599       C  0.21713904  0.70113638  0.65832879    -0.14800
C2600       C  0.19907559  0.72356786  0.64508259     0.07400
C2601       C  0.16907810  0.72511271  0.65377190    -0.14800
C2602       C  0.15811339  0.70530752  0.67551124    -0.14800
C2603       C  0.17698059  0.68382987  0.68894499     0.07400
C2604       C  0.20632473  0.68156860  0.67934997    -0.14800
H2605       H  0.24036737  0.69937640  0.65278883     0.11300
H2606       H  0.15445642  0.74246422  0.64482819     0.11300
H2607       H  0.13534712  0.70759853  0.68243483     0.11300
H2608       H  0.22154205  0.66500322  0.68864019     0.11300
C2609       C  0.18966838  0.67434137  0.84077358    -0.14800
C2610       C  0.17149280  0.68534606  0.81960718     0.07400
C2611       C  0.16271874  0.71740554  0.82011387    -0.14800
C2612       C  0.17434620  0.73853277  0.84004734    -0.14800
C2613       C  0.19527677  0.72815681  0.85962720     0.07400
C2614       C  0.20166800  0.69519650  0.86003806    -0.14800
H2615       H  0.19664054  0.64967861  0.84112469     0.11300
H2616       H  0.14875811  0.72662035  0.80396026     0.11300
H2617       H  0.16898921  0.76358509  0.83866423     0.11300
H2618       H  0.21813793  0.68516462  0.87331966     0.11300
C2619       C  0.24867046  0.95121520  0.56539862    -0.14800
C2620       C  0.21785749  0.95345206  0.56692152     0.07400
C2621       C  0.20469150  0.97170750  0.58813954    -0.14800
C2622       C  0.22210156  0.98700278  0.60788558    -0.14800
C2623       C  0.25323555  0.98420118  0.60697983     0.07400
C2624       C  0.26603428  0.96686225  0.58468969    -0.14800
H2625       H  0.25948759  0.93794187  0.54883931     0.11300
H2626       H  0.18091939  0.97436174  0.58935444     0.11300
H2627       H  0.21088481  0.00183319  0.62300394     0.11300
H2628       H  0.28982553  0.96515199  0.58250447     0.11300
C2629       C  0.22104649  0.98719732  0.93845322    -0.14800
C2630       C  0.22340733  0.95433182  0.94331456     0.07400
C2631       C  0.24412931  0.93685124  0.92763309    -0.14800
C2632       C  0.26118466  0.95152716  0.90679771    -0.14800
C2633       C  0.25745119  0.98408731  0.90031714     0.07400
C2634       C  0.23823295  0.00193512  0.91767935    -0.14800
H2635       H  0.20592115  0.00160197  0.95071535     0.11300
H2636       H  0.24723704  0.91166619  0.93142782     0.11300
H2637       H  0.27737634  0.93703566  0.89603064     0.11300
H2638       H  0.23936142  0.52320942  0.91355040     0.11300
C2639       C  0.08481158  0.94534748  0.58631100    -0.14800
C2640       C  0.07616274  0.92477872  0.56489951     0.07400
C2641       C  0.04601022  0.91941922  0.56045455    -0.14800
C2642       C  0.02482735  0.93639070  0.57589315    -0.14800
C2643       C  0.03362190  0.95839183  0.59623744     0.07400
C2644       C  0.06367566  0.96180952  0.60202276    -0.14800
H2645       H  0.10801445  0.95020456  0.58966233     0.11300
H2646       H  0.03895505  0.90414332  0.54363046     0.11300
H2647       H  0.00167741  0.93351546  0.57108803     0.11300
H2648       H  0.07374670  0.48491134  0.61281117     0.11300
C2649       C  0.21645076  0.80103093  0.90577307    -0.14800
C2650       C  0.19897952  0.77704062  0.89363493     0.07400
C2651       C  0.16931802  0.77397451  0.90309877    -0.14800
C2652       C  0.15822993  0.79367751  0.92475429    -0.14800
C2653       C  0.17666123  0.81655721  0.93724376     0.07400
C2654       C  0.20547325  0.82054764  0.92661606    -0.14800
H2655       H  0.23944383  0.80397741  0.89965843     0.11300
H2656       H  0.15522514  0.75539302  0.89500597     0.11300
H2657       H  0.13586327  0.79009038  0.93249091     0.11300
H2658       H  0.22027034  0.83828686  0.93513212     0.11300
C2659       C  0.18689601  0.82483656  0.59108999    -0.14800
C2660       C  0.16998109  0.81280450  0.56929761     0.07400
C2661       C  0.16237062  0.78029191  0.56963598    -0.14800
C2662       C  0.17404002  0.75987687  0.59001860    -0.14800
C2663       C  0.19403214  0.77139353  0.61014467     0.07400
C2664       C  0.19891219  0.80471634  0.61085601    -0.14800
H2665       H  0.19287084  0.84987746  0.59163410     0.11300
H2666       H  0.14935905  0.77026665  0.55306023     0.11300
H2667       H  0.16967982  0.73454788  0.58849123     0.11300
H2668       H  0.21426898  0.81574880  0.62481682     0.11300
C2669       C  0.02774504  0.56489038  0.83122164    -0.14800
C2670       C  0.03588066  0.54033400  0.84934624     0.07400
C2671       C  0.06584302  0.53388079  0.85310889    -0.14800
C2672       C  0.08729485  0.54976162  0.83702707    -0.14800
C2673       C  0.07905877  0.57264024  0.81730562     0.07400
C2674       C  0.04926955  0.58126354  0.81550666    -0.14800
H2675       H  0.00462311  0.56987915  0.82789326     0.11300
H2676       H  0.07248927  0.51458092  0.86649211     0.11300
H2677       H  0.11017066  0.54263401  0.83859627     0.11300
H2678       H  0.04240945  0.59850671  0.80019133     0.11300
C2679       C  0.03357616  0.92939004  0.92072462    -0.14800
C2680       C  0.03627235  0.96070157  0.91027099     0.07400
C2681       C  0.06106949  0.97882319  0.91769526    -0.14800
C2682       C  0.08263679  0.96606027  0.93477026    -0.14800
C2683       C  0.08003363  0.93478557  0.94517161     0.07400
C2684       C  0.05520523  0.91658407  0.93792500    -0.14800
H2685       H  0.01450048  0.91482426  0.91608671     0.11300
H2686       H  0.06039598  0.50442428  0.91435872     0.11300
H2687       H  0.10131287  0.98099414  0.94002368     0.11300
H2688       H  0.05220995  0.89264107  0.94591325     0.11300
C2689       C  0.92582573  0.58533506  0.57321183    -0.14800
C2690       C  0.90984470  0.56617642  0.55475517     0.07400
C2691       C  0.91721405  0.53382413  0.55214374    -0.14800
C2692       C  0.93928158  0.52068383  0.56795051    -0.14800
C2693       C  0.95500191  0.53927182  0.58698553     0.07400
C2694       C  0.94817789  0.57197104  0.58935636    -0.14800
H2695       H  0.92076828  0.61039974  0.57546106     0.11300
H2696       H  0.90583348  0.51827567  0.53782592     0.11300
H2697       H  0.94357362  0.49541346  0.56584324     0.11300
H2698       H  0.95914627  0.58719255  0.60407652     0.11300
C2699       C  0.91018007  0.57233319  0.91182176    -0.14800
C2700       C  0.91512315  0.57642238  0.94015846     0.07400
C2701       C  0.94152155  0.56541819  0.95167078    -0.14800
C2702       C  0.96155504  0.54777307  0.93539092    -0.14800
C2703       C  0.95527797  0.54125659  0.90751343     0.07400
C2704       C  0.93040750  0.55550109  0.89549462    -0.14800
H2705       H  0.88992709  0.58066987  0.90267903     0.11300
H2706       H  0.94539173  0.56815852  0.97372179     0.11300
H2707       H  0.98056297  0.53720231  0.94507684     0.11300
H2708       H  0.92554947  0.55184560  0.87374394     0.11300
C2709       C  0.75943592  0.56692956  0.90840195    -0.14800
C2710       C  0.77461095  0.54929252  0.92843664     0.07400
C2711       C  0.77527848  0.51606026  0.92592356    -0.14800
C2712       C  0.75838043  0.50070682  0.90600430    -0.14800
C2713       C  0.73953090  0.51793717  0.88832943     0.07400
C2714       C  0.74288919  0.55142590  0.88794756    -0.14800
H2715       H  0.76009963  0.59272976  0.90871993     0.11300
H2716       H  0.78762200  0.50168086  0.94031609     0.11300
H2717       H  0.74273185  0.97318807  0.91724619     0.11300
H2718       H  0.73274004  0.56603047  0.87241800     0.11300
C2719       C  0.78021038  0.52850591  0.58026921    -0.14800
C2720       C  0.76627169  0.54559136  0.55925065     0.07400
C2721       C  0.73580195  0.55050138  0.56163507    -0.14800
C2722       C  0.71941287  0.53665349  0.58340901    -0.14800
C2723       C  0.73251428  0.51644980  0.60328901     0.07400
C2724       C  0.76384184  0.51518089  0.60232925    -0.14800
H2725       H  0.80402033  0.52605008  0.58006599     0.11300
H2726       H  0.72450976  0.56510586  0.54664753     0.11300
H2727       H  0.69652280  0.54312075  0.58501706     0.11300
H2728       H  0.77658215  0.50493984  0.61867642     0.11300
C2729       C  0.92623742  0.91514965  0.66990392    -0.14800
C2730       C  0.92062920  0.92461967  0.69740278     0.07400
C2731       C  0.93835463  0.94848447  0.70933852    -0.14800
C2732       C  0.95944382  0.96480903  0.69327451    -0.14800
C2733       C  0.96289575  0.95760320  0.66505533     0.07400
C2734       C  0.94714212  0.93184069  0.65369339    -0.14800
H2735       H  0.91277456  0.89690604  0.66034284     0.11300
H2736       H  0.93451150  0.95590353  0.73068557     0.11300
H2737       H  0.97160986  0.48280102  0.69700827     0.11300
H2738       H  0.94928800  0.92643711  0.63171695     0.11300
C2739       C  0.92977400  0.90982873  0.81904276    -0.14800
C2740       C  0.91008801  0.92926954  0.80461547     0.07400
C2741       C  0.91399985  0.96236824  0.80508689    -0.14800
C2742       C  0.93644406  0.97598138  0.82029301    -0.14800
C2743       C  0.95532860  0.95707936  0.83618749     0.07400
C2744       C  0.95210917  0.92364378  0.83505762    -0.14800
H2745       H  0.92746003  0.88414155  0.81842578     0.11300
H2746       H  0.89977630  0.97792135  0.79339775     0.11300
H2747       H  0.93843784  0.00172901  0.82048855     0.11300
H2748       H  0.96611846  0.90802475  0.84671102     0.11300
C2749       C  0.76045948  0.98091509  0.80666599    -0.14800
C2750       C  0.76874033  0.94909680  0.80988146     0.07400
C2751       C  0.76107727  0.93334540  0.83477625    -0.14800
C2752       C  0.74433284  0.94888526  0.85554065    -0.14800
C2753       C  0.73268956  0.97960854  0.85095397     0.07400
C2754       C  0.74318850  0.99599728  0.82695041    -0.14800
H2755       H  0.76691813  0.99409259  0.78814533     0.11300
H2756       H  0.76859101  0.90926984  0.83841900     0.11300
H2757       H  0.74069238  0.93665866  0.87507135     0.11300
H2758       H  0.74959279  0.52181056  0.82949218     0.11300
C2759       C  0.75442413  0.97859350  0.69463311    -0.14800
C2760       C  0.77426677  0.95502045  0.68642281     0.07400
C2761       C  0.77571232  0.94584998  0.65846327    -0.14800
C2762       C  0.75755947  0.96046426  0.63888503    -0.14800
C2763       C  0.73758320  0.98510300  0.64647724     0.07400
C2764       C  0.73649886  0.99335802  0.67522510    -0.14800
H2765       H  0.75261260  0.98550262  0.71632288     0.11300
H2766       H  0.79057031  0.92707885  0.65183637     0.11300
H2767       H  0.75936324  0.95269689  0.61743890     0.11300
H2768       H  0.72184903  0.01120542  0.68359913     0.11300
C2769       C  0.72239779  0.73929123  0.85540424    -0.14800
C2770       C  0.75331670  0.73493338  0.85623071     0.07400
C2771       C  0.76652483  0.71579204  0.83531583    -0.14800
C2772       C  0.74948494  0.69938683  0.81614033    -0.14800
C2773       C  0.71876199  0.70287914  0.81627527     0.07400
C2774       C  0.70540344  0.72332997  0.83577810    -0.14800
H2775       H  0.71111642  0.75574972  0.86912769     0.11300
H2776       H  0.79028807  0.71304561  0.83427096     0.11300
H2777       H  0.76046473  0.68458800  0.80071653     0.11300
H2778       H  0.68176599  0.72718556  0.83572912     0.11300
C2779       C  0.73572293  0.75213605  0.91693707    -0.14800
C2780       C  0.75598639  0.76975837  0.90029670     0.07400
C2781       C  0.76059887  0.80208849  0.90722471    -0.14800
C2782       C  0.74323845  0.81695209  0.92755442    -0.14800
C2783       C  0.72133335  0.79984110  0.94230195     0.07400
C2784       C  0.71819880  0.76707317  0.93722344    -0.14800
H2785       H  0.73267995  0.72685018  0.91342802     0.11300
H2786       H  0.77766115  0.81623561  0.89710552     0.11300
H2787       H  0.74708360  0.84198732  0.93170386     0.11300
H2788       H  0.70217219  0.75294065  0.94885958     0.11300
C2789       C  0.77198629  0.79999988  0.84437540    -0.14800
C2790       C  0.78968235  0.77699477  0.85736764     0.07400
C2791       C  0.81928019  0.77389382  0.84791708    -0.14800
C2792       C  0.83009051  0.79235069  0.82539967    -0.14800
C2793       C  0.81138760  0.81378798  0.81185305     0.07400
C2794       C  0.78264250  0.81808447  0.82231775    -0.14800
H2795       H  0.74902813  0.80288216  0.85051849     0.11300
H2796       H  0.83353982  0.75603490  0.85661414     0.11300
H2797       H  0.85247821  0.78880355  0.81779690     0.11300
H2798       H  0.76782836  0.83495687  0.81285707     0.11300
C2799       C  0.81553550  0.74130575  0.91083853    -0.14800
C2800       C  0.79412008  0.72952614  0.89224557     0.07400
C2801       C  0.78790998  0.69647539  0.89302615    -0.14800
C2802       C  0.80101506  0.67671214  0.91225945    -0.14800
C2803       C  0.82006159  0.68903771  0.93219736     0.07400
C2804       C  0.82833096  0.72125586  0.93074823    -0.14800
H2805       H  0.82053294  0.76655718  0.91139494     0.11300
H2806       H  0.77085949  0.68561604  0.88076397     0.11300
H2807       H  0.79414049  0.65192537  0.91313323     0.11300
H2808       H  0.84268458  0.73138508  0.94625508     0.11300
C2809       C  0.74839020  0.79884395  0.56227718    -0.14800
C2810       C  0.71757347  0.79602538  0.56282096     0.07400
C2811       C  0.70382690  0.77674894  0.58314976    -0.14800
C2812       C  0.72057073  0.76141444  0.60319990    -0.14800
C2813       C  0.75155511  0.76541940  0.60368334     0.07400
C2814       C  0.76511202  0.78330333  0.58202977    -0.14800
H2815       H  0.75968304  0.81280271  0.54636607     0.11300
H2816       H  0.68007935  0.77343649  0.58353937     0.11300
H2817       H  0.70903239  0.74584398  0.61763073     0.11300
H2818       H  0.78892494  0.78578796  0.58086593     0.11300
C2819       C  0.73381817  0.75028236  0.66516114    -0.14800
C2820       C  0.75438686  0.73259341  0.64916705     0.07400
C2821       C  0.76027515  0.70109941  0.65782959    -0.14800
C2822       C  0.74380476  0.68678804  0.67918225    -0.14800
C2823       C  0.72153373  0.70370343  0.69328162     0.07400
C2824       C  0.71713037  0.73585807  0.68645648    -0.14800
H2825       H  0.72994886  0.77512816  0.66047548     0.11300
H2826       H  0.77772349  0.68717923  0.64829214     0.11300
H2827       H  0.74854480  0.66230998  0.68456547     0.11300
H2828       H  0.70076996  0.74992397  0.69754373     0.11300
C2829       C  0.81375534  0.76255489  0.65805018    -0.14800
C2830       C  0.79217598  0.77308857  0.63927414     0.07400
C2831       C  0.78500555  0.80588738  0.63978006    -0.14800
C2832       C  0.79675779  0.82632467  0.65944943    -0.14800
C2833       C  0.81559553  0.81493436  0.67990873     0.07400
C2834       C  0.82534711  0.78327248  0.67820192    -0.14800
H2835       H  0.81960462  0.73759498  0.65874671     0.11300
H2836       H  0.76803002  0.81587344  0.62700331     0.11300
H2837       H  0.78916771  0.85077287  0.65994259     0.11300
H2838       H  0.83997269  0.77388191  0.69374217     0.11300
C2839       C  0.81663706  0.72529309  0.59644624    -0.14800
C2840       C  0.78710426  0.72337985  0.60629356     0.07400
C2841       C  0.76872430  0.69965333  0.59492453    -0.14800
C2842       C  0.77875806  0.67928489  0.57434187    -0.14800
C2843       C  0.80757243  0.68197979  0.56342652     0.07400
C2844       C  0.82677661  0.70469894  0.57513198    -0.14800
H2845       H  0.83135178  0.74365186  0.60393099     0.11300
H2846       H  0.74575308  0.69764286  0.60140205     0.11300
H2847       H  0.76321170  0.66200639  0.56632571     0.11300
H2848       H  0.84917462  0.70729878  0.56717851     0.11300
loop_ 
_geom_bond_atom_site_label_1 
_geom_bond_atom_site_label_2 
_geom_bond_distance 
_geom_bond_site_symmetry_2 
_ccdc_geom_bond_type 
C1          C677   1.551       .  S
C1          C684   1.554       .  S
C1          C694   1.554       .  S
C1          C704   1.547       .  S
C2          C634   1.555       .  S
C2          C644   1.554       .  S
C2          C654   1.548       .  S
C2          C664   1.555       .  S
Fe3          O19   2.079       .  S
Fe3           O9   2.035       .  S
Fe3          O16   2.060       .  S
Fe3           O8   2.051       .  S
Fe3          O14   1.945       .  S
Fe4           O7   2.060       .  S
Fe4          O11   2.071       .  S
Fe4          O15   2.089       .  S
Fe4          O20   2.043       .  S
Fe4          O14   1.942       .  S
Fe5          O23   2.080       .  S
Fe5          O10   2.093       .  S
Fe5          O17   2.116       .  S
Fe5           O6   2.087       .  S
Fe5          O14   1.966       .  S
O6           C13   1.270       .  A
O7           C21   1.269       .  A
O8           C13   1.267       .  A
O9           C12   1.270       .  A
O10          C22   1.276       .  A
O11          C24   1.268       .  A
C12          O17   1.279       .  A
C12         C697   1.482       .  S
C13         C657   1.484       .  S
O15          C18   1.275       .  A
O16          C18   1.268       .  A
C18         C614   1.484       .  S
O19          C24   1.268       .  A
O20          C22   1.270       .  A
C21          O23   1.273       .  A
C21         C594   1.470       .  S
C22         C604   1.475       .  S
C24         C624   1.472       .  S
Fe25         O41   2.076   1_556  S
Fe25         O31   2.045   1_556  S
Fe25        O750   2.070       .  S
Fe25        O742   2.043       .  S
Fe25        O748   1.957       .  S
Fe26         O37   2.069       .  S
Fe26         O42   2.049       .  S
Fe26        O741   2.039       .  S
Fe26        O745   2.061       .  S
Fe26         O36   1.958       .  S
Fe27         O32   2.079       .  S
Fe27         O28   2.097       .  S
Fe27        O757   2.084       .  S
Fe27        O751   2.093       .  S
Fe27         O36   1.987       .  S
O28          C35   1.275       .  A
O29        Fe738   2.038   1_554  S
O29          C43   1.264       .  A
O30        Fe737   2.040       .  S
O30          C35   1.267       .  A
O31          C34   1.268       .  A
O32          C44   1.271       .  A
O33        Fe738   2.062   1_554  S
O33          C46   1.270       .  A
C34          O39   1.272       .  A
C34         C707   1.489       .  S
C35         C667   1.475       .  S
O36        Fe737   1.960       .  S
O37          C40   1.267       .  A
O38        Fe737   2.061       .  S
O38          C40   1.264       .  A
O39        Fe739   2.094   1_554  S
C40         C574   1.483       .  S
O41          C46   1.272       .  A
O42          C44   1.270       .  A
C43          O45   1.272       .  A
C43         C554   1.483       .  S
C44         C564   1.459       .  S
O45        Fe739   2.085   1_554  S
C46         C584   1.482       .  S
C47         C607   1.522       .  S
C47          C48   1.535       .  S
C47          C53   1.525       .  S
C47          C51   1.543       .  S
C48        H1479   1.087       .  S
C48        C1473   1.364   1_655  D
C49          C50   1.538       .  S
C49        C1472   1.364   1_445  D
C49         C534   1.472       .  S
C50          C54   1.537   1_455  S
C50        C1476   1.551   1_545  S
C50          H56   1.109       .  S
C51          H57   1.081   1_655  S
C51          C52   1.374   1_655  D
C52        C1474   1.553       .  S
C52         C544   1.497       .  S
C53        H1482   1.088       .  S
C53        C1478   1.357       .  D
C54        C1477   1.356   1_545  D
C54         C567   1.472       .  S
H55        C1472   1.087       .  S
H58        C1477   1.088       .  S
Fe59         O75   2.061       .  S
Fe59         O65   2.033       .  S
Fe59        O784   2.053   1_554  S
Fe59        O776   2.051   1_554  S
Fe59         O70   1.952       .  S
Fe60         O63   2.053       .  S
Fe60         O67   2.049       .  S
Fe60        O783   2.076   1_554  S
Fe60        O788   2.049   1_554  S
Fe60         O70   1.949       .  S
Fe61         O79   2.077       .  S
Fe61         O73   2.117       .  S
Fe61        O778   2.098   1_554  S
Fe61        O774   2.090   1_554  S
Fe61         O70   1.975       .  S
O62        Fe773   2.085       .  S
O62          C69   1.270       .  A
O63          C77   1.269       .  A
O64        Fe771   2.048       .  S
O64          C69   1.267       .  A
O65          C68   1.266       .  A
O66        Fe773   2.097       .  S
O66          C78   1.276       .  A
O67          C80   1.264       .  A
C68          O73   1.277       .  A
C68         C524   1.484       .  S
C69         C517   1.480       .  S
O71        Fe772   2.081       .  S
O71          C74   1.273       .  A
O72        Fe771   2.049       .  S
O72          C74   1.269       .  A
C74         C494   1.480       .  S
O75          C80   1.266       .  A
O76        Fe772   2.045       .  S
O76          C78   1.268       .  A
C77          O79   1.274       .  A
C77         C504   1.469       .  S
C78         C547   1.488       .  S
C80         C484   1.471       .  S
Fe81         O97   2.053       .  S
Fe81         O87   2.045       .  S
Fe81         O94   2.059       .  S
Fe81         O86   2.034       .  S
Fe81         O92   1.956       .  S
Fe82         O85   2.044       .  S
Fe82         O89   2.076       .  S
Fe82         O93   2.048       .  S
Fe82         O98   2.046       .  S
Fe82         O92   1.957       .  S
Fe83        O101   2.097       .  S
Fe83         O88   2.078       .  S
Fe83         O95   2.089       .  S
Fe83         O84   2.115       .  S
Fe83         O92   1.985       .  S
O84          C91   1.277       .  A
O85          C99   1.268       .  A
O86          C91   1.267       .  A
O87          C90   1.267       .  A
O88         C100   1.272       .  A
O89         C102   1.271       .  A
C90          O95   1.271       .  A
C90         C467   1.484       .  S
C91         C474   1.483       .  S
O93          C96   1.263       .  A
O94          C96   1.266       .  A
C96         C437   1.470       .  S
O97         C102   1.268       .  A
O98         C100   1.267       .  A
C99         O101   1.276       .  A
C99         C454   1.487       .  S
C100        C537   1.469       .  S
C102        C444   1.481       .  S
C103        C414   1.560       .  S
C103        C424   1.553       .  S
C103        C477   1.555       .  S
C103        C514   1.544       .  S
C104        C394   1.553       .  S
C104        C404   1.550       .  S
C104        C464   1.546       .  S
C104        C527   1.553       .  S
C105        C557   1.524       .  S
C105        C106   1.529   1_545  S
C105        C111   1.537   1_545  S
C105        C109   1.542       .  S
C106       H1537   1.087       .  S
C106       C1531   1.357       .  D
C107        C108   1.539   1_655  S
C107       C1530   1.357       .  D
C107        C597   1.475       .  S
C108        C112   1.535       .  S
C108       C1534   1.551       .  S
C108        H114   1.109       .  S
C109        H115   1.081       .  S
C109        C110   1.373   1_655  D
C110       C1532   1.552   1_545  S
C110        C457   1.496       .  S
C111        H116   1.087       .  S
C111       C1536   1.364   1_655  D
C112       C1535   1.364   1_455  D
C112        C507   1.471       .  S
H113       C1530   1.087       .  S
Fe117       O133   2.058       .  S
Fe117       O123   2.056       .  S
Fe117       O130   2.070       .  S
Fe117       O122   2.033       .  S
Fe117       O128   1.935       .  S
Fe118       O121   2.031       .  S
Fe118       O125   2.078       .  S
Fe118       O129   2.057       .  S
Fe118       O134   2.058       .  S
Fe118       O128   1.936       .  S
Fe119       O137   2.091       .  S
Fe119       O124   2.080       .  S
Fe119       O131   2.082       .  S
Fe119       O120   2.115       .  S
Fe119       O128   1.962       .  S
O120        C127   1.279       .  A
O121        C135   1.268       .  A
O122        C127   1.269       .  A
O123        C126   1.268       .  A
O124        C136   1.273       .  A
O125        C138   1.271       .  A
C126        O131   1.269       .  A
C126        C374   1.482       .  S
C127        C384   1.480       .  S
O129        C132   1.268       .  A
O130        C132   1.270       .  A
C132        C397   1.475       .  S
O133        C138   1.269       .  A
O134        C136   1.269       .  A
C135        O137   1.276       .  A
C135        C364   1.469       .  S
C136        C357   1.475       .  S
C138        C427   1.481       .  S
Fe139       O155   2.076       .  S
Fe139       O145   2.031       .  S
Fe139       O864   2.048       .  S
Fe139       O856   2.056       .  S
Fe139       O862   1.938       .  S
Fe140       O151   2.081   1_556  S
Fe140       O156   2.039   1_556  S
Fe140       O855   2.061       .  S
Fe140       O859   2.071       .  S
Fe140       O150   1.947       .  S
Fe141       O146   2.089   1_556  S
Fe141       O142   2.080   1_556  S
Fe141       O871   2.074       .  S
Fe141       O865   2.106       .  S
Fe141       O150   1.973       .  S
O142        C149   1.269       .  A
O143       Fe852   2.058       .  S
O143        C157   1.269       .  A
O144       Fe851   2.058   1_554  S
O144        C149   1.269       .  A
O145        C148   1.269       .  A
O146        C158   1.275       .  A
O147       Fe852   2.068       .  S
O147        C160   1.269       .  A
C148        O153   1.277       .  A
C148        C334   1.479       .  S
C149        C344   1.484       .  S
O150       Fe851   1.942       .  S
O151        C154   1.272       .  A
O152       Fe851   2.047   1_554  S
O152        C154   1.267       .  A
O153       Fe853   2.109       .  S
C154        C407   1.479       .  S
O155        C160   1.270       .  A
O156        C158   1.269       .  A
C157        O159   1.272       .  A
C157        C314   1.470       .  S
C158        C324   1.475       .  S
O159       Fe853   2.076       .  S
C160        C417   1.485       .  S
C161        C337   1.554   1_565  S
C161        C434   1.551   1_565  S
C161       C1801   1.548       .  S
C161       C1921   1.554       .  S
C162        C347   1.547       .  S
C162        C447   1.552       .  S
C162       C1811   1.554   1_545  S
C162       C1911   1.550   1_545  S
C163        C367   1.520       .  S
C163        C164   1.530       .  S
C163        C169   1.535       .  S
C163        C167   1.543       .  S
C164        H171   1.087       .  S
C164        C165   1.356       .  D
C165        C166   1.535       .  S
C165        C317   1.468       .  S
C166        C170   1.538       .  S
C166        C168   1.551       .  S
C166        H172   1.109       .  S
C167        H173   1.080       .  S
C167        C168   1.371       .  D
C168        C304   1.499       .  S
C169        H174   1.087       .  S
C169        C170   1.364       .  D
C170        C294   1.474       .  S
C175        C274   1.567   1_565  S
C175        C577   1.563   1_565  S
C175       C1711   1.567       .  S
C175       C2041   1.558       .  S
Fe176       O192   2.047       .  S
Fe176       O182   2.065       .  S
Fe176       O189   2.064       .  S
Fe176       O181   2.036       .  S
Fe176       O187   1.972       .  S
Fe177       O180   2.043       .  S
Fe177       O184   2.058       .  S
Fe177       O188   2.063       .  S
Fe177       O193   2.052       .  S
Fe177       O187   1.972       .  S
Fe178       O196   2.081       .  S
Fe178       O183   2.081       .  S
Fe178       O190   2.098       .  S
Fe178       O179   2.096       .  S
Fe178       O187   1.995       .  S
O179        C186   1.272       .  A
O180        C194   1.267       .  A
O181        C186   1.263       .  A
O182        C185   1.269       .  A
O183        C195   1.272       .  A
O184        C197   1.265       .  A
C185        O190   1.274       .  A
C185        C277   1.481       .  S
C186        C264   1.483       .  S
O188        C191   1.269       .  A
O189        C191   1.270       .  A
C191        C687   1.480       .  S
O192        C197   1.263       .  A
O193        C195   1.266       .  A
C194        O196   1.272       .  A
C194        C297   1.471       .  S
C195        C254   1.484       .  S
C197        C637   1.469       .  S
C198        C267   1.551       .  S
C198        C587   1.575       .  S
C198       C1668   1.572   1_545  S
C198       C2051   1.584   1_545  S
Fe199       O212   2.074       .  S
Fe199       O204   2.053       .  S
Fe199       O927   2.058   1_554  S
Fe199       O917   2.079   1_554  S
Fe199       O210   1.963       .  S
Fe200       O211   2.045       .  S
Fe200       O216   2.052       .  S
Fe200       O915   2.048   1_554  S
Fe200       O919   2.073   1_554  S
Fe200       O210   1.958       .  S
Fe201       O206   2.076   1_556  S
Fe201       O202   2.122   1_556  S
Fe201       O931   2.101       .  S
Fe201       O925   2.083       .  S
Fe201       O210   1.976   1_556  S
O202        C209   1.279       .  A
O203       Fe912   2.048       .  S
O203        C217   1.269       .  A
O204        C209   1.268       .  A
O205       Fe911   2.075       .  S
O205        C208   1.270       .  A
O206        C218   1.271       .  A
O207       Fe912   2.075       .  S
O207        C220   1.271       .  A
C208        O213   1.269       .  A
C208        C284   1.477       .  S
C209        C247   1.490       .  S
O211        C214   1.264       .  A
O212        C214   1.269       .  A
O213       Fe913   2.080       .  S
C214        C674   1.474       .  S
O215       Fe911   2.059       .  S
O215        C220   1.269       .  A
O216        C218   1.268       .  A
C217        O219   1.278       .  A
C217        C307   1.489       .  S
C218        C234   1.473       .  S
O219       Fe913   2.102       .  S
C220        C647   1.483       .  S
C221        C327   1.521       .  S
C221        C222   1.536       .  S
C221        C227   1.527       .  S
C221        C225   1.540       .  S
C222        H229   1.087       .  S
C222        C223   1.364       .  D
C223        C224   1.537       .  S
C223        C237   1.473       .  S
C224        C228   1.538       .  S
C224        C226   1.552       .  S
C224        H230   1.109       .  S
C225        H231   1.080       .  S
C225        C226   1.373       .  D
C226        C257   1.496       .  S
C227        H232   1.088       .  S
C227        C228   1.355       .  D
C228        C354   1.470       .  S
C233        C234   1.404       .  A
C233        C238   1.401       .  A
C233        H239   1.083       .  S
C234        C235   1.405       .  A
C235        C236   1.395       .  A
C235        H240   1.084       .  S
C236        C237   1.399       .  A
C236        H241   1.082       .  S
C237        C238   1.404       .  A
C238        H242   1.083       .  S
C243        C244   1.421       .  A
C243        C248   1.410       .  A
C243        H249   1.075       .  S
C244       C1622   1.581       .  S
C244        C245   1.417       .  A
C245        C246   1.402       .  A
C245        H250   1.077       .  S
C246        C247   1.403       .  A
C246        H251   1.084       .  S
C247        C248   1.401       .  A
C248        H252   1.083       .  S
C253        C254   1.407       .  A
C253        C258   1.397       .  A
C253        H259   1.083       .  S
C254        C255   1.403       .  A
C255        C256   1.400       .  A
C255        H260   1.083       .  S
C256        C257   1.411       .  A
C256        H261   1.081       .  S
C257        C258   1.405       .  A
C258        H262   1.080       .  S
C263        C264   1.404       .  A
C263        C268   1.390       .  A
C263        H269   1.084       .  S
C264        C265   1.403       .  A
C265        C266   1.408       .  A
C265        H270   1.083       .  S
C266        C267   1.418       .  A
C266        H271   1.082   1_545  S
C267        C268   1.411       .  A
C268        H272   1.082       .  S
C273        C274   1.421       .  A
C273        C278   1.398       .  A
C273        H279   1.082   1_545  S
C274        C275   1.411       .  A
C275        C276   1.410       .  A
C275        H280   1.082       .  S
C276        C277   1.407       .  A
C276        H281   1.083       .  S
C277        C278   1.396       .  A
C278        H282   1.083       .  S
C283        C284   1.406       .  A
C283        C288   1.410       .  A
C283        H289   1.083       .  S
C284        C285   1.395       .  A
C285        C286   1.394       .  A
C285        H290   1.084       .  S
C286        C287   1.419       .  A
C286        H291   1.082       .  S
C287       C1599   1.561       .  S
C287        C288   1.412       .  A
C288        H292   1.082       .  S
C293        C294   1.398       .  A
C293        C298   1.393       .  A
C293        H299   1.079       .  S
C294        C295   1.405       .  A
C295        C296   1.400       .  A
C295        H300   1.083       .  S
C296        C297   1.404       .  A
C296        H301   1.083       .  S
C297        C298   1.404       .  A
C298        H302   1.084       .  S
C303        C304   1.412       .  A
C303        C308   1.404       .  A
C303        H309   1.081       .  S
C304        C305   1.404       .  A
C305        C306   1.395       .  A
C305        H310   1.078       .  S
C306        C307   1.407       .  A
C306        H311   1.083       .  S
C307        C308   1.405       .  A
C308        H312   1.083       .  S
C313        C314   1.406       .  A
C313        C318   1.393       .  A
C313        H319   1.084       .  S
C314        C315   1.401       .  A
C315        C316   1.401       .  A
C315        H320   1.083       .  S
C316        C317   1.407       .  A
C316        H321   1.083       .  S
C317        C318   1.396       .  A
C318        H322   1.084       .  S
C323        C324   1.403       .  A
C323        C328   1.386       .  A
C323        H329   1.083       .  S
C324        C325   1.404       .  A
C325        C326   1.402       .  A
C325        H330   1.083       .  S
C326        C327   1.412       .  A
C326        H331   1.078       .  S
C327        C328   1.405       .  A
C328        H332   1.084       .  S
C333        C334   1.397       .  A
C333        C338   1.383       .  A
C333        H339   1.084       .  S
C334        C335   1.405       .  A
C335        C336   1.410       .  A
C335        H340   1.083       .  S
C336        C337   1.416       .  A
C336        H341   1.083   1_545  S
C337        C338   1.416       .  A
C338        H342   1.077       .  S
C343        C344   1.409       .  A
C343        C348   1.413       .  A
C343        H349   1.083       .  S
C344        C345   1.399       .  A
C345        C346   1.382       .  A
C345        H350   1.084       .  S
C346        C347   1.412       .  A
C346        H351   1.083       .  S
C347        C348   1.413       .  A
C348        H352   1.081       .  S
C353        C354   1.396       .  A
C353        C358   1.393       .  A
C353        H359   1.084       .  S
C354        C355   1.408       .  A
C355        C356   1.403       .  A
C355        H360   1.083       .  S
C356        C357   1.402       .  A
C356        H361   1.083       .  S
C357        C358   1.408       .  A
C358        H362   1.084       .  S
C363        C364   1.402       .  A
C363        C368   1.387       .  A
C363        H369   1.083       .  S
C364        C365   1.401       .  A
C365        C366   1.400       .  A
C365        H370   1.083       .  S
C366        C367   1.412       .  A
C366        H371   1.077       .  S
C367        C368   1.405       .  A
C368        H372   1.084       .  S
C373        C374   1.399       .  A
C373        C378   1.381       .  A
C373        H379   1.084       .  S
C374        C375   1.408       .  A
C375        C376   1.414       .  A
C375        H380   1.083       .  S
C376        C377   1.415       .  A
C376        H381   1.081       .  S
C377       C1585   1.548       .  S
C377        C378   1.411       .  A
C378        H382   1.083       .  S
C383        C384   1.399       .  A
C383        C388   1.386       .  A
C383        H389   1.084       .  S
C384        C385   1.404       .  A
C385        C386   1.409       .  A
C385        H390   1.083       .  S
C386        C387   1.416       .  A
C386        H391   1.083       .  S
C387       C1586   1.552       .  S
C387        C388   1.415       .  A
C388        H392   1.078       .  S
C393        C394   1.412       .  A
C393        C398   1.391       .  A
C393        H399   1.083       .  S
C394        C395   1.416       .  A
C395        C396   1.398       .  A
C395        H400   1.079       .  S
C396        C397   1.401       .  A
C396        H401   1.083       .  S
C397        C398   1.403       .  A
C398        H402   1.083       .  S
C403        C404   1.412       .  A
C403        C408   1.396       .  A
C403        H409   1.083       .  S
C404        C405   1.413       .  A
C405        C406   1.394       .  A
C405        H410   1.081       .  S
C406        C407   1.403       .  A
C406        H411   1.083       .  S
C407        C408   1.404       .  A
C408        H412   1.083       .  S
C413        C414   1.416       .  A
C413        C418   1.403       .  A
C413        H419   1.079       .  S
C414        C415   1.413       .  A
C415        C416   1.394       .  A
C415        H420   1.083       .  S
C416        C417   1.403       .  A
C416        H421   1.083       .  S
C417        C418   1.404       .  A
C418        H422   1.083       .  S
C423        C424   1.410       .  A
C423        C428   1.396       .  A
C423        H429   1.083       .  S
C424        C425   1.417       .  A
C425        C426   1.396       .  A
C425        H430   1.080       .  S
C426        C427   1.402       .  A
C426        H431   1.083       .  S
C427        C428   1.405       .  A
C428        H432   1.083       .  S
C433        C434   1.414       .  A
C433        C438   1.389       .  A
C433        H439   1.083       .  S
C434        C435   1.413       .  A
C435        C436   1.396       .  A
C435        H440   1.079   1_545  S
C436        C437   1.402       .  A
C436        H441   1.083       .  S
C437        C438   1.399       .  A
C438        H442   1.083       .  S
C443        C444   1.403       .  A
C443        C448   1.394       .  A
C443        H449   1.083       .  S
C444        C445   1.405       .  A
C445        C446   1.398       .  A
C445        H450   1.083       .  S
C446        C447   1.412       .  A
C446        H451   1.083   1_545  S
C447        C448   1.414       .  A
C448        H452   1.080       .  S
C453        C454   1.407       .  A
C453        C458   1.395       .  A
C453        H459   1.083       .  S
C454        C455   1.405       .  A
C455        C456   1.403       .  A
C455        H460   1.083       .  S
C456        C457   1.411       .  A
C456        H461   1.082       .  S
C457        C458   1.404       .  A
C458        H462   1.079   1_545  S
C463        C464   1.410       .  A
C463        C468   1.381       .  A
C463        H469   1.083       .  S
C464        C465   1.414       .  A
C465        C466   1.413       .  A
C465        H470   1.081       .  S
C466        C467   1.408       .  A
C466        H471   1.083       .  S
C467        C468   1.401       .  A
C468        H472   1.084       .  S
C473        C474   1.400       .  A
C473        C478   1.389       .  A
C473        H479   1.084       .  S
C474        C475   1.404       .  A
C475        C476   1.410       .  A
C475        H480   1.083       .  S
C476        C477   1.418       .  A
C476        H481   1.083       .  S
C477        C478   1.414       .  A
C478        H482   1.078       .  S
C483        C484   1.400       .  A
C483        C488   1.391       .  A
C483        H489   1.083       .  S
C484        C485   1.402       .  A
C485        C486   1.396       .  A
C485        H490   1.083       .  S
C486        C487   1.414       .  A
C486        H491   1.079       .  S
C487       C1586   1.551       .  S
C487        C488   1.414       .  A
C488        H492   1.083       .  S
C493        C494   1.403       .  A
C493        C498   1.396       .  A
C493        H499   1.083       .  S
C494        C495   1.404       .  A
C495        C496   1.395       .  A
C495        H500   1.083       .  S
C496        C497   1.414       .  A
C496        H501   1.080       .  S
C497       C1585   1.552       .  S
C497        C498   1.412       .  A
C498       H1926   1.083       .  S
H502       C1922   1.083       .  S
C503        C504   1.406       .  A
C503        C508   1.396       .  A
C503        H509   1.084       .  S
C504        C505   1.402       .  A
C505        C506   1.400       .  A
C505        H510   1.083       .  S
C506        C507   1.404       .  A
C506        H511   1.083       .  S
C507        C508   1.399       .  A
C508       H1936   1.082       .  S
H512       C1932   1.081       .  S
C513        C514   1.409       .  A
C513        C518   1.380       .  A
C513        H519   1.083       .  S
C514        C515   1.415       .  A
C515        C516   1.412       .  A
C515        H520   1.081       .  S
C516        C517   1.407       .  A
C516        H521   1.083       .  S
C517        C518   1.400       .  A
C518        H522   1.084       .  S
C523        C524   1.400       .  A
C523        C528   1.388       .  A
C523        H529   1.084       .  S
C524        C525   1.404       .  A
C525        C526   1.410       .  A
C525        H530   1.083       .  S
C526        C527   1.417       .  A
C526        H531   1.083       .  S
C527        C528   1.414       .  A
C528        H532   1.078       .  S
C533        C534   1.405       .  A
C533        C538   1.401       .  A
C533        H539   1.083       .  S
C534        C535   1.398       .  A
C535        C536   1.394       .  A
C535        H540   1.081       .  S
C536        C537   1.405       .  A
C536        H541   1.084       .  S
C537        C538   1.403       .  A
C538        H542   1.083       .  S
C543        C544   1.412       .  A
C543        C548   1.404       .  A
C543        H549   1.082       .  S
C544        C545   1.403       .  A
C545        C546   1.394       .  A
C545       H1974   1.080       .  S
C546        C547   1.407       .  A
C546        H551   1.083       .  S
C547        C548   1.405       .  A
C548        H552   1.083       .  S
H550       C1969   1.080   1_545  S
C553        C554   1.405       .  A
C553        C558   1.406       .  A
C553        H559   1.083       .  S
C554        C555   1.406       .  A
C555        C556   1.386       .  A
C555        H560   1.083       .  S
C556        C557   1.404       .  A
C556        H561   1.084   1_545  S
C557        C558   1.413       .  A
C558        H562   1.078       .  S
C563        C564   1.395       .  A
C563        C568   1.392       .  A
C563        H569   1.083       .  S
C564        C565   1.406       .  A
C565        C566   1.400       .  A
C565        H570   1.084       .  S
C566        C567   1.399       .  A
C566        H571   1.083       .  S
C567        C568   1.407       .  A
C568        H572   1.084       .  S
C573        C574   1.407       .  A
C573        C578   1.406       .  A
C573        H579   1.083       .  S
C574        C575   1.399       .  A
C575        C576   1.391       .  A
C575        H580   1.083       .  S
C576        C577   1.417       .  A
C576       H2005   1.083   1_545  S
C577        C578   1.413       .  A
C578        H582   1.077       .  S
H581       C2000   1.083       .  S
C583        C584   1.401       .  A
C583        C588   1.400       .  A
C583        H589   1.083       .  S
C584        C585   1.399       .  A
C585        C586   1.396       .  A
C585        H590   1.083       .  S
C586        C587   1.417       .  A
C586        H591   1.074       .  S
C587        C588   1.420       .  A
C588        H592   1.074       .  S
C593        C594   1.400       .  A
C593        C598   1.401       .  A
C593        H599   1.083       .  S
C594        C595   1.407       .  A
C595        C596   1.397       .  A
C595        H600   1.084       .  S
C596        C597   1.398       .  A
C596       H2025   1.084       .  S
C597        C598   1.408       .  A
C598        H602   1.083       .  S
H601       C2020   1.084       .  S
C603        C604   1.403       .  A
C603        C608   1.404       .  A
C603        H609   1.083       .  S
C604        C605   1.402       .  A
C605        C606   1.389       .  A
C605        H610   1.083       .  S
C606        C607   1.407       .  A
C606        H611   1.084       .  S
C607        C608   1.412       .  A
C608        H612   1.078       .  S
C613        C614   1.399       .  A
C613        C618   1.392       .  A
C613        H619   1.083       .  S
C614        C615   1.408       .  A
C615        C616   1.406       .  A
C615        H620   1.083       .  S
C616        C617   1.413       .  A
C616        H621   1.078       .  S
C617       C1599   1.559       .  S
C617        C618   1.416       .  A
C618       H2046   1.083       .  S
H622       C2042   1.084   1_545  S
C623        C624   1.393       .  A
C623        C628   1.396       .  A
C623        H629   1.084       .  S
C624        C625   1.399       .  A
C625        C626   1.405       .  A
C625        H630   1.083       .  S
C626        C627   1.422       .  A
C626        H631   1.083       .  S
C627       C1622   1.584       .  S
C627        C628   1.424       .  A
C628        H632   1.077       .  S
C633        C634   1.417       .  A
C633        C638   1.396       .  A
C633        H639   1.079       .  S
C634        C635   1.413       .  A
C635        C636   1.392       .  A
C635        H640   1.083       .  S
C636        C637   1.400       .  A
C636        H641   1.083       .  S
C637        C638   1.399       .  A
C638        H642   1.083       .  S
C643        C644   1.412       .  A
C643        C648   1.398       .  A
C643        H649   1.083       .  S
C644        C645   1.414       .  A
C645        C646   1.396       .  A
C645        H650   1.080       .  S
C646        C647   1.403       .  A
C646        H651   1.083       .  S
C647        C648   1.405       .  A
C648        H652   1.083       .  S
C653        C654   1.410       .  A
C653        C658   1.381       .  A
C653        H659   1.083       .  S
C654        C655   1.415       .  A
C655        C656   1.414       .  A
C655        H660   1.081       .  S
C656        C657   1.408       .  A
C656        H661   1.083       .  S
C657        C658   1.400       .  A
C658        H662   1.084       .  S
C663        C664   1.417       .  A
C663        C668   1.410       .  A
C663        H669   1.083       .  S
C664        C665   1.415       .  A
C665        C666   1.388       .  A
C665        H670   1.077       .  S
C666        C667   1.398       .  A
C666        H671   1.085       .  S
C667        C668   1.402       .  A
C668        H672   1.083       .  S
C673        C674   1.399       .  A
C673        C678   1.392       .  A
C673        H679   1.083       .  S
C674        C675   1.404       .  A
C675        C676   1.397       .  A
C675        H680   1.083       .  S
C676        C677   1.412       .  A
C676        H681   1.079       .  S
C677        C678   1.415       .  A
C678        H682   1.083       .  S
C683        C684   1.412       .  A
C683        C688   1.398       .  A
C683        H689   1.083       .  S
C684        C685   1.415       .  A
C685        C686   1.394       .  A
C685        H690   1.081       .  S
C686        C687   1.402       .  A
C686        H691   1.083       .  S
C687        C688   1.404       .  A
C688        H692   1.083       .  S
C693        C694   1.416       .  A
C693        C698   1.410       .  A
C693        H699   1.083       .  S
C694        C695   1.416       .  A
C695        C696   1.386       .  A
C695        H700   1.079       .  S
C696        C697   1.399       .  A
C696        H701   1.084       .  S
C697        C698   1.405       .  A
C698        H702   1.083       .  S
C703        C704   1.413       .  A
C703        C708   1.413       .  A
C703        H709   1.081       .  S
C704        C705   1.411       .  A
C705        C706   1.383       .  A
C705        H710   1.083       .  S
C706        C707   1.401       .  A
C706        H711   1.083       .  S
C707        C708   1.411       .  A
C708        H712   1.083       .  S
C713       C1389   1.551       .  S
C713       C1396   1.555       .  S
C713       C1406   1.552       .  S
C713       C1416   1.546       .  S
C714       C1346   1.556       .  S
C714       C1356   1.552       .  S
C714       C1366   1.545       .  S
C714       C1376   1.555       .  S
Fe715       O731   2.077       .  S
Fe715       O721   2.034       .  S
Fe715       O728   2.059       .  S
Fe715       O720   2.051       .  S
Fe715       O726   1.942       .  S
Fe716       O719   2.055       .  S
Fe716       O723   2.076       .  S
Fe716       O727   2.089       .  S
Fe716       O732   2.047       .  S
Fe716       O726   1.938       .  S
Fe717       O735   2.077       .  S
Fe717       O722   2.087       .  S
Fe717       O729   2.112       .  S
Fe717       O718   2.082       .  S
Fe717       O726   1.964       .  S
O718        C725   1.268       .  A
O719        C733   1.268       .  A
O720        C725   1.266       .  A
O721        C724   1.270       .  A
O722        C734   1.275       .  A
O723        C736   1.268       .  A
C724        O729   1.279       .  A
C724       C1409   1.479       .  S
C725       C1369   1.480       .  S
O727        C730   1.275       .  A
O728        C730   1.269       .  A
C730       C1326   1.483       .  S
O731        C736   1.267       .  A
O732        C734   1.272       .  A
C733        O735   1.272       .  A
C733       C1306   1.468       .  S
C734       C1316   1.471       .  S
C736       C1336   1.473       .  S
Fe737       O753   2.072       .  S
Fe737       O743   2.034       .  S
Fe738       O749   2.071       .  S
Fe738       O754   2.051       .  S
Fe738       O748   1.957       .  S
Fe739       O744   2.081       .  S
Fe739       O740   2.098       .  S
Fe739       O748   1.984       .  S
O740        C747   1.274       .  A
O741        C755   1.265       .  A
O742        C747   1.267       .  A
O743        C746   1.266       .  A
O744        C756   1.273       .  A
O745        C758   1.269       .  A
C746        O751   1.271       .  A
C746       C1419   1.487       .  S
C747       C1379   1.477       .  S
O749        C752   1.267       .  A
O750        C752   1.265       .  A
C752       C1286   1.481       .  S
O753        C758   1.271       .  A
O754        C756   1.271       .  A
C755        O757   1.273       .  A
C755       C1266   1.482       .  S
C756       C1276   1.459       .  S
C758       C1296   1.481       .  S
C759       C1319   1.520       .  S
C759        C760   1.536       .  S
C759        C765   1.521       .  S
C759        C763   1.539       .  S
C760       H2191   1.087   1_655  S
C760       C2185   1.363   1_655  D
C761        C762   1.538       .  S
C761       C2184   1.363   1_445  D
C761       C1246   1.474       .  S
C762        C766   1.537   1_455  S
C762       C2188   1.554   1_545  S
C762        H768   1.109       .  S
C763        H769   1.082       .  S
C763        C764   1.375   1_655  D
C764       C2186   1.558       .  S
C764       C1256   1.500       .  S
C765       H2194   1.087       .  S
C765       C2190   1.358       .  D
C766       C2189   1.355   1_545  D
C766       C1279   1.472       .  S
H767       C2184   1.087       .  S
H770       C2189   1.088       .  S
Fe771       O787   2.061       .  S
Fe771       O777   2.030       .  S
Fe771       O782   1.950       .  S
Fe772       O775   2.051       .  S
Fe772       O779   2.051       .  S
Fe772       O782   1.950       .  S
Fe773       O791   2.074       .  S
Fe773       O785   2.118       .  S
Fe773       O782   1.977       .  S
O774        C781   1.272       .  A
O775        C789   1.269       .  A
O776        C781   1.268       .  A
O777        C780   1.267       .  A
O778        C790   1.275       .  A
O779        C792   1.263       .  A
C780        O785   1.278       .  A
C780       C1236   1.482       .  S
C781       C1229   1.483       .  S
O783        C786   1.273       .  A
O784        C786   1.269       .  A
C786       C1206   1.479       .  S
O787        C792   1.266       .  A
O788        C790   1.268       .  A
C789        O791   1.272       .  A
C789       C1216   1.466       .  S
C790       C1259   1.490       .  S
C792       C1196   1.472       .  S
Fe793       O809   2.055       .  S
Fe793       O799   2.043       .  S
Fe793       O806   2.056       .  S
Fe793       O798   2.036       .  S
Fe793       O804   1.952       .  S
Fe794       O797   2.045       .  S
Fe794       O801   2.078       .  S
Fe794       O805   2.049       .  S
Fe794       O810   2.048       .  S
Fe794       O804   1.954       .  S
Fe795       O813   2.095       .  S
Fe795       O800   2.080       .  S
Fe795       O807   2.090       .  S
Fe795       O796   2.120       .  S
Fe795       O804   1.978       .  S
O796        C803   1.279       .  A
O797        C811   1.268       .  A
O798        C803   1.268       .  A
O799        C802   1.266       .  A
O800        C812   1.272       .  A
O801        C814   1.272       .  A
C802        O807   1.270       .  A
C802       C1179   1.483       .  S
C803       C1186   1.485       .  S
O805        C808   1.264       .  A
O806        C808   1.265       .  A
C808       C1149   1.469       .  S
O809        C814   1.269       .  A
O810        C812   1.267       .  A
C811        O813   1.277       .  A
C811       C1166   1.485       .  S
C812       C1249   1.470       .  S
C814       C1156   1.482       .  S
C815       C1126   1.561       .  S
C815       C1136   1.554       .  S
C815       C1189   1.557       .  S
C815       C1226   1.547       .  S
C816       C1106   1.554       .  S
C816       C1116   1.551       .  S
C816       C1176   1.546       .  S
C816       C1239   1.553       .  S
C817       C1269   1.523       .  S
C817        C818   1.529       .  S
C817        C823   1.537   1_545  S
C817        C821   1.540       .  S
C818       H2249   1.087   1_545  S
C818       C2243   1.357   1_545  D
C819        C820   1.536   1_655  S
C819       C2242   1.356       .  D
C819       C1309   1.470       .  S
C820        C824   1.535       .  S
C820       C2246   1.552       .  S
C820        H826   1.109       .  S
C821        H827   1.080       .  S
C821        C822   1.373   1_655  D
C822       C2244   1.553   1_545  S
C822       C1169   1.497       .  S
C823        H828   1.087       .  S
C823       C2248   1.365   1_655  D
C824       C2247   1.363   1_455  D
C824       C1219   1.471       .  S
H825       C2242   1.088       .  S
Fe829       O845   2.058       .  S
Fe829       O835   2.056       .  S
Fe829       O842   2.069       .  S
Fe829       O834   2.034       .  S
Fe829       O840   1.935       .  S
Fe830       O833   2.036       .  S
Fe830       O837   2.080       .  S
Fe830       O841   2.060       .  S
Fe830       O846   2.059       .  S
Fe830       O840   1.936       .  S
Fe831       O849   2.090       .  S
Fe831       O836   2.073       .  S
Fe831       O843   2.076       .  S
Fe831       O832   2.114       .  S
Fe831       O840   1.963       .  S
O832        C839   1.278       .  A
O833        C847   1.269       .  A
O834        C839   1.269       .  A
O835        C838   1.269       .  A
O836        C848   1.272       .  A
O837        C850   1.272       .  A
C838        O843   1.268       .  A
C838       C1086   1.478       .  S
C839       C1096   1.480       .  S
O841        C844   1.269       .  A
O842        C844   1.270       .  A
C844       C1109   1.477       .  S
O845        C850   1.269       .  A
O846        C848   1.270       .  A
C847        O849   1.275       .  A
C847       C1076   1.470       .  S
C848       C1069   1.471       .  S
C850       C1139   1.482       .  S
Fe851       O867   2.075       .  S
Fe851       O857   2.033       .  S
Fe852       O863   2.081       .  S
Fe852       O868   2.035       .  S
Fe852       O862   1.944       .  S
Fe853       O858   2.089       .  S
Fe853       O854   2.081       .  S
Fe853       O862   1.971       .  S
O854        C861   1.269       .  A
O855        C869   1.269       .  A
O856        C861   1.269       .  A
O857        C860   1.269       .  A
O858        C870   1.275       .  A
O859        C872   1.270       .  A
C860        O865   1.276       .  A
C860       C1046   1.478       .  S
C861       C1056   1.483       .  S
O863        C866   1.272       .  A
O864        C866   1.267       .  A
C866       C1119   1.479       .  S
O867        C872   1.270       .  A
O868        C870   1.268       .  A
C869        O871   1.271       .  A
C869       C1026   1.470       .  S
C870       C1036   1.473       .  S
C872       C1129   1.485       .  S
C873       C1049   1.553       .  S
C873       C2513   1.549   1_545  S
C873       C1146   1.550       .  S
C873       C2633   1.553   1_545  S
C874       C1059   1.547       .  S
C874       C2523   1.555   1_545  S
C874       C1159   1.553       .  S
C874       C2623   1.553   1_545  S
C875       C1079   1.520       .  S
C875        C876   1.529       .  S
C875        C881   1.535       .  S
C875        C879   1.543       .  S
C876        H883   1.087       .  S
C876        C877   1.356       .  D
C877        C878   1.537       .  S
C877       C1029   1.470       .  S
C878        C882   1.538       .  S
C878        C880   1.552       .  S
C878        H884   1.109       .  S
C879        H885   1.080       .  S
C879        C880   1.373       .  D
C880       C1016   1.499       .  S
C881        H886   1.087       .  S
C881        C882   1.364       .  D
C882       C1006   1.474       .  S
C887        C986   1.563   1_565  S
C887       C2423   1.563       .  S
C887       C1289   1.562   1_565  S
C887       C2753   1.560       .  S
Fe888       O904   2.055       .  S
Fe888       O894   2.063       .  S
Fe888       O901   2.064       .  S
Fe888       O893   2.047       .  S
Fe888       O899   1.968       .  S
Fe889       O892   2.045       .  S
Fe889       O896   2.057       .  S
Fe889       O900   2.067       .  S
Fe889       O905   2.049       .  S
Fe889       O899   1.970       .  S
Fe890       O908   2.079       .  S
Fe890       O895   2.084       .  S
Fe890       O902   2.103       .  S
Fe890       O891   2.090       .  S
Fe890       O899   1.993       .  S
O891        C898   1.270       .  A
O892        C906   1.267       .  A
O893        C898   1.266       .  A
O894        C897   1.269       .  A
O895        C907   1.273       .  A
O896        C909   1.265       .  A
C897        O902   1.275       .  A
C897        C989   1.483       .  S
C898        C976   1.482       .  S
O900        C903   1.270       .  A
O901        C903   1.271       .  A
C903       C1399   1.482       .  S
O904        C909   1.265       .  A
O905        C907   1.267       .  A
C906        O908   1.272       .  A
C906       C1009   1.471       .  S
C907        C966   1.484       .  S
C909       C1349   1.474       .  S
C910       C2380   1.575   1_545  S
C910        C979   1.553       .  S
C910       C1299   1.574       .  S
C910       C2763   1.583   1_545  S
Fe911       O924   2.071       .  S
Fe911       O916   2.054       .  S
Fe911       O922   1.963       .  S
Fe912       O923   2.045       .  S
Fe912       O928   2.051       .  S
Fe912       O922   1.959       .  S
Fe913       O918   2.068       .  S
Fe913       O914   2.122       .  S
Fe913       O922   1.978       .  S
O914        C921   1.279       .  A
O915        C929   1.268       .  A
O916        C921   1.268       .  A
O917        C920   1.271       .  A
O918        C930   1.269       .  A
O919        C932   1.271       .  A
C920        O925   1.270       .  A
C920        C996   1.480       .  S
C921        C959   1.494       .  S
O923        C926   1.264       .  A
O924        C926   1.269       .  A
C926       C1386   1.472       .  S
O927        C932   1.270       .  A
O928        C930   1.267       .  A
C929        O931   1.277       .  A
C929       C1019   1.490       .  S
C930        C946   1.469       .  S
C932       C1359   1.481       .  S
C933       C1039   1.519       .  S
C933        C934   1.535       .  S
C933        C939   1.527       .  S
C933        C937   1.540       .  S
C934        H941   1.087       .  S
C934        C935   1.363       .  D
C935        C936   1.536       .  S
C935        C949   1.469       .  S
C936        C940   1.537       .  S
C936        C938   1.550       .  S
C936        H942   1.109       .  S
C937        H943   1.080       .  S
C937        C938   1.372       .  D
C938        C969   1.493       .  S
C939        H944   1.088       .  S
C939        C940   1.356       .  D
C940       C1066   1.467       .  S
C945        C946   1.403       .  A
C945        C950   1.400       .  A
C945        H951   1.083       .  S
C946        C947   1.404       .  A
C947        C948   1.393       .  A
C947        H952   1.084       .  S
C948        C949   1.399       .  A
C948        H953   1.082       .  S
C949        C950   1.403       .  A
C950        H954   1.083       .  S
C955        C956   1.421       .  A
C955        C960   1.412       .  A
C955        H961   1.077       .  S
C956       C2334   1.581       .  S
C956        C957   1.416       .  A
C957        C958   1.401       .  A
C957        H962   1.076       .  S
C958        C959   1.403       .  A
C958        H963   1.084       .  S
C959        C960   1.402       .  A
C960        H964   1.083       .  S
C965        C966   1.407       .  A
C965        C970   1.397       .  A
C965        H971   1.083       .  S
C966        C967   1.404       .  A
C967        C968   1.399       .  A
C967        H972   1.083       .  S
C968        C969   1.410       .  A
C968        H973   1.082       .  S
C969        C970   1.404       .  A
C970        H974   1.080       .  S
C975        C976   1.402       .  A
C975        C980   1.390       .  A
C975        H981   1.084       .  S
C976        C977   1.404       .  A
C977        C978   1.409       .  A
C977        H982   1.083       .  S
C978        C979   1.418       .  A
C978        H983   1.082   1_545  S
C979        C980   1.413       .  A
C980        H984   1.082       .  S
C985        C986   1.419       .  A
C985        C990   1.405       .  A
C985        H991   1.083   1_545  S
C986        C987   1.410       .  A
C987        C988   1.403       .  A
C987        H992   1.080       .  S
C988        C989   1.404       .  A
C988        H993   1.083       .  S
C989        C990   1.401       .  A
C990        H994   1.083       .  S
C995        C996   1.407       .  A
C995       C1000   1.412       .  A
C995       H1001   1.083       .  S
C996        C997   1.394       .  A
C997        C998   1.394       .  A
C997       H1002   1.084       .  S
C998        C999   1.420       .  A
C998       H1003   1.082       .  S
C999       C2311   1.565       .  S
C999       C1000   1.413       .  A
C1000      H1004   1.082       .  S
C1005      C1006   1.399       .  A
C1005      C1010   1.394       .  A
C1005      H1011   1.080       .  S
C1006      C1007   1.405       .  A
C1007      C1008   1.401       .  A
C1007      H1012   1.083       .  S
C1008      C1009   1.404       .  A
C1008      H1013   1.083       .  S
C1009      C1010   1.404       .  A
C1010      H1014   1.084       .  S
C1015      C1016   1.412       .  A
C1015      C1020   1.404       .  A
C1015      H1021   1.081       .  S
C1016      C1017   1.404       .  A
C1017      C1018   1.396       .  A
C1017      H1022   1.079       .  S
C1018      C1019   1.407       .  A
C1018      H1023   1.083       .  S
C1019      C1020   1.405       .  A
C1020      H1024   1.083       .  S
C1025      C1026   1.406       .  A
C1025      C1030   1.395       .  A
C1025      H1031   1.084       .  S
C1026      C1027   1.401       .  A
C1027      C1028   1.401       .  A
C1027      H1032   1.083       .  S
C1028      C1029   1.407       .  A
C1028      H1033   1.083       .  S
C1029      C1030   1.397       .  A
C1030      H1034   1.084       .  S
C1035      C1036   1.402       .  A
C1035      C1040   1.385       .  A
C1035      H1041   1.083       .  S
C1036      C1037   1.404       .  A
C1037      C1038   1.401       .  A
C1037      H1042   1.083       .  S
C1038      C1039   1.411       .  A
C1038      H1043   1.078       .  S
C1039      C1040   1.405       .  A
C1040      H1044   1.084       .  S
C1045      C1046   1.397       .  A
C1045      C1050   1.385       .  A
C1045      H1051   1.084       .  S
C1046      C1047   1.404       .  A
C1047      C1048   1.409       .  A
C1047      H1052   1.083       .  S
C1048      C1049   1.416       .  A
C1048      H1053   1.083   1_545  S
C1049      C1050   1.416       .  A
C1050      H1054   1.077       .  S
C1055      C1056   1.409       .  A
C1055      C1060   1.412       .  A
C1055      H1061   1.083       .  S
C1056      C1057   1.400       .  A
C1057      C1058   1.381       .  A
C1057      H1062   1.084       .  S
C1058      C1059   1.411       .  A
C1058      H1063   1.083       .  S
C1059      C1060   1.414       .  A
C1060      H1064   1.081       .  S
C1065      C1066   1.396       .  A
C1065      C1070   1.392       .  A
C1065      H1071   1.084       .  S
C1066      C1067   1.407       .  A
C1067      C1068   1.401       .  A
C1067      H1072   1.083       .  S
C1068      C1069   1.401       .  A
C1068      H1073   1.083       .  S
C1069      C1070   1.407       .  A
C1070      H1074   1.084       .  S
C1075      C1076   1.402       .  A
C1075      C1080   1.387       .  A
C1075      H1081   1.083       .  S
C1076      C1077   1.402       .  A
C1077      C1078   1.401       .  A
C1077      H1082   1.083       .  S
C1078      C1079   1.411       .  A
C1078      H1083   1.078       .  S
C1079      C1080   1.406       .  A
C1080      H1084   1.084       .  S
C1085      C1086   1.398       .  A
C1085      C1090   1.380       .  A
C1085      H1091   1.084       .  S
C1086      C1087   1.408       .  A
C1087      C1088   1.413       .  A
C1087      H1092   1.083       .  S
C1088      C1089   1.414       .  A
C1088      H1093   1.081       .  S
C1089      C2297   1.545       .  S
C1089      C1090   1.411       .  A
C1090      H1094   1.083       .  S
C1095      C1096   1.399       .  A
C1095      C1100   1.386       .  A
C1095      H1101   1.084       .  S
C1096      C1097   1.404       .  A
C1097      C1098   1.409       .  A
C1097      H1102   1.083       .  S
C1098      C1099   1.416       .  A
C1098      H1103   1.083       .  S
C1099      C2298   1.553       .  S
C1099      C1100   1.415       .  A
C1100      H1104   1.078       .  S
C1105      C1106   1.412       .  A
C1105      C1110   1.391       .  A
C1105      H1111   1.083       .  S
C1106      C1107   1.416       .  A
C1107      C1108   1.398       .  A
C1107      H1112   1.079       .  S
C1108      C1109   1.401       .  A
C1108      H1113   1.083       .  S
C1109      C1110   1.403       .  A
C1110      H1114   1.083       .  S
C1115      C1116   1.412       .  A
C1115      C1120   1.396       .  A
C1115      H1121   1.083       .  S
C1116      C1117   1.413       .  A
C1117      C1118   1.394       .  A
C1117      H1122   1.081       .  S
C1118      C1119   1.403       .  A
C1118      H1123   1.083       .  S
C1119      C1120   1.404       .  A
C1120      H1124   1.083       .  S
C1125      C1126   1.417       .  A
C1125      C1130   1.403       .  A
C1125      H1131   1.079       .  S
C1126      C1127   1.413       .  A
C1127      C1128   1.395       .  A
C1127      H1132   1.083       .  S
C1128      C1129   1.404       .  A
C1128      H1133   1.083       .  S
C1129      C1130   1.403       .  A
C1130      H1134   1.083       .  S
C1135      C1136   1.411       .  A
C1135      C1140   1.396       .  A
C1135      H1141   1.083       .  S
C1136      C1137   1.416       .  A
C1137      C1138   1.397       .  A
C1137      H1142   1.080       .  S
C1138      C1139   1.402       .  A
C1138      H1143   1.083       .  S
C1139      C1140   1.405       .  A
C1140      H1144   1.083       .  S
C1145      C1146   1.413       .  A
C1145      C1150   1.389       .  A
C1145      H1151   1.083       .  S
C1146      C1147   1.414       .  A
C1147      C1148   1.395       .  A
C1147      H1152   1.079   1_545  S
C1148      C1149   1.401       .  A
C1148      H1153   1.083       .  S
C1149      C1150   1.400       .  A
C1150      H1154   1.083       .  S
C1155      C1156   1.402       .  A
C1155      C1160   1.395       .  A
C1155      H1161   1.083       .  S
C1156      C1157   1.405       .  A
C1157      C1158   1.398       .  A
C1157      H1162   1.083       .  S
C1158      C1159   1.412       .  A
C1158      H1163   1.083   1_545  S
C1159      C1160   1.415       .  A
C1160      H1164   1.080       .  S
C1165      C1166   1.407       .  A
C1165      C1170   1.395       .  A
C1165      H1171   1.083       .  S
C1166      C1167   1.404       .  A
C1167      C1168   1.401       .  A
C1167      H1172   1.083       .  S
C1168      C1169   1.411       .  A
C1168      H1173   1.081       .  S
C1169      C1170   1.404       .  A
C1170      H1174   1.078   1_545  S
C1175      C1176   1.409       .  A
C1175      C1180   1.380       .  A
C1175      H1181   1.083       .  S
C1176      C1177   1.415       .  A
C1177      C1178   1.413       .  A
C1177      H1182   1.081       .  S
C1178      C1179   1.408       .  A
C1178      H1183   1.083       .  S
C1179      C1180   1.401       .  A
C1180      H1184   1.084       .  S
C1185      C1186   1.401       .  A
C1185      C1190   1.390       .  A
C1185      H1191   1.084       .  S
C1186      C1187   1.404       .  A
C1187      C1188   1.411       .  A
C1187      H1192   1.083       .  S
C1188      C1189   1.418       .  A
C1188      H1193   1.083       .  S
C1189      C1190   1.414       .  A
C1190      H1194   1.078       .  S
C1195      C1196   1.400       .  A
C1195      C1200   1.390       .  A
C1195      H1201   1.083       .  S
C1196      C1197   1.402       .  A
C1197      C1198   1.397       .  A
C1197      H1202   1.083       .  S
C1198      C1199   1.414       .  A
C1198      H1203   1.079       .  S
C1199      C2298   1.552       .  S
C1199      C1200   1.413       .  A
C1200      H1204   1.083       .  S
C1205      C1206   1.403       .  A
C1205      C1210   1.394       .  A
C1205      H1211   1.083       .  S
C1206      C1207   1.403       .  A
C1207      C1208   1.396       .  A
C1207      H1212   1.083       .  S
C1208      C1209   1.415       .  A
C1208      H1213   1.080       .  S
C1209      C2297   1.551       .  S
C1209      C1210   1.411       .  A
C1210      H2638   1.083       .  S
H1214      C2634   1.083       .  S
C1215      C1216   1.405       .  A
C1215      C1220   1.395       .  A
C1215      H1221   1.084       .  S
C1216      C1217   1.402       .  A
C1217      C1218   1.399       .  A
C1217      H1222   1.083       .  S
C1218      C1219   1.404       .  A
C1218      H1223   1.083       .  S
C1219      C1220   1.399       .  A
C1220      H2648   1.081       .  S
H1224      C2644   1.079       .  S
C1225      C1226   1.409       .  A
C1225      C1230   1.381       .  A
C1225      H1231   1.083       .  S
C1226      C1227   1.416       .  A
C1227      C1228   1.414       .  A
C1227      H1232   1.081       .  S
C1228      C1229   1.407       .  A
C1228      H1233   1.083       .  S
C1229      C1230   1.401       .  A
C1230      H1234   1.084       .  S
C1235      C1236   1.400       .  A
C1235      C1240   1.388       .  A
C1235      H1241   1.084       .  S
C1236      C1237   1.404       .  A
C1237      C1238   1.409       .  A
C1237      H1242   1.083       .  S
C1238      C1239   1.417       .  A
C1238      H1243   1.083       .  S
C1239      C1240   1.414       .  A
C1240      H1244   1.078       .  S
C1245      C1246   1.406       .  A
C1245      C1250   1.401       .  A
C1245      H1251   1.083       .  S
C1246      C1247   1.399       .  A
C1247      C1248   1.395       .  A
C1247      H1252   1.081       .  S
C1248      C1249   1.405       .  A
C1248      H1253   1.084       .  S
C1249      C1250   1.403       .  A
C1250      H1254   1.083       .  S
C1255      C1256   1.412       .  A
C1255      C1260   1.405       .  A
C1255      H1261   1.082       .  S
C1256      C1257   1.404       .  A
C1257      C1258   1.397       .  A
C1257      H2686   1.080       .  S
C1258      C1259   1.408       .  A
C1258      H1263   1.083       .  S
C1259      C1260   1.406       .  A
C1260      H1264   1.083       .  S
H1262      C2681   1.080   1_545  S
C1265      C1266   1.404       .  A
C1265      C1270   1.405       .  A
C1265      H1271   1.083       .  S
C1266      C1267   1.406       .  A
C1267      C1268   1.386       .  A
C1267      H1272   1.083       .  S
C1268      C1269   1.404       .  A
C1268      H1273   1.084   1_545  S
C1269      C1270   1.413       .  A
C1270      H1274   1.078       .  S
C1275      C1276   1.396       .  A
C1275      C1280   1.394       .  A
C1275      H1281   1.083       .  S
C1276      C1277   1.405       .  A
C1277      C1278   1.399       .  A
C1277      H1282   1.084       .  S
C1278      C1279   1.399       .  A
C1278      H1283   1.083       .  S
C1279      C1280   1.408       .  A
C1280      H1284   1.084       .  S
C1285      C1286   1.404       .  A
C1285      C1290   1.405       .  A
C1285      H1291   1.083       .  S
C1286      C1287   1.399       .  A
C1287      C1288   1.394   1_545  A
C1287      H1292   1.083   1_545  S
C1288      C1289   1.416   1_565  A
C1288      H2717   1.082       .  S
C1289      C1290   1.415       .  A
C1290      H1294   1.080       .  S
H1293      C2712   1.083       .  S
C1295      C1296   1.400       .  A
C1295      C1300   1.399       .  A
C1295      H1301   1.084       .  S
C1296      C1297   1.399       .  A
C1297      C1298   1.395       .  A
C1297      H1302   1.083       .  S
C1298      C1299   1.418       .  A
C1298      H1303   1.077       .  S
C1299      C1300   1.419       .  A
C1300      H1304   1.073       .  S
C1305      C1306   1.400       .  A
C1305      C1310   1.401       .  A
C1305      H1311   1.083       .  S
C1306      C1307   1.407       .  A
C1307      C1308   1.394       .  A
C1307      H1312   1.084       .  S
C1308      C1309   1.396       .  A
C1308      H2737   1.084       .  S
C1309      C1310   1.408       .  A
C1310      H1314   1.083       .  S
H1313      C2732   1.084       .  S
C1315      C1316   1.404       .  A
C1315      C1320   1.404       .  A
C1315      H1321   1.083       .  S
C1316      C1317   1.400       .  A
C1317      C1318   1.387       .  A
C1317      H1322   1.084       .  S
C1318      C1319   1.408       .  A
C1318      H1323   1.084       .  S
C1319      C1320   1.411       .  A
C1320      H1324   1.079       .  S
C1325      C1326   1.400       .  A
C1325      C1330   1.391       .  A
C1325      H1331   1.083       .  S
C1326      C1327   1.407       .  A
C1327      C1328   1.405       .  A
C1327      H1332   1.083       .  S
C1328      C1329   1.412       .  A
C1328      H1333   1.078       .  S
C1329      C2311   1.557       .  S
C1329      C1330   1.415       .  A
C1330      H2758   1.084       .  S
H1334      C2754   1.082   1_545  S
C1335      C1336   1.394       .  A
C1335      C1340   1.396       .  A
C1335      H1341   1.084       .  S
C1336      C1337   1.399       .  A
C1337      C1338   1.405       .  A
C1337      H1342   1.083       .  S
C1338      C1339   1.423       .  A
C1338      H1343   1.083       .  S
C1339      C2334   1.585       .  S
C1339      C1340   1.424       .  A
C1340      H1344   1.077       .  S
C1345      C1346   1.416       .  A
C1345      C1350   1.397       .  A
C1345      H1351   1.079       .  S
C1346      C1347   1.413       .  A
C1347      C1348   1.393       .  A
C1347      H1352   1.083       .  S
C1348      C1349   1.401       .  A
C1348      H1353   1.083       .  S
C1349      C1350   1.401       .  A
C1350      H1354   1.083       .  S
C1355      C1356   1.411       .  A
C1355      C1360   1.396       .  A
C1355      H1361   1.083       .  S
C1356      C1357   1.415       .  A
C1357      C1358   1.395       .  A
C1357      H1362   1.081       .  S
C1358      C1359   1.402       .  A
C1358      H1363   1.083       .  S
C1359      C1360   1.405       .  A
C1360      H1364   1.083       .  S
C1365      C1366   1.411       .  A
C1365      C1370   1.380       .  A
C1365      H1371   1.083       .  S
C1366      C1367   1.414       .  A
C1367      C1368   1.413       .  A
C1367      H1372   1.081       .  S
C1368      C1369   1.408       .  A
C1368      H1373   1.083       .  S
C1369      C1370   1.399       .  A
C1370      H1374   1.084       .  S
C1375      C1376   1.418       .  A
C1375      C1380   1.410       .  A
C1375      H1381   1.083       .  S
C1376      C1377   1.414       .  A
C1377      C1378   1.388       .  A
C1377      H1382   1.078       .  S
C1378      C1379   1.398       .  A
C1378      H1383   1.085       .  S
C1379      C1380   1.403       .  A
C1380      H1384   1.083       .  S
C1385      C1386   1.399       .  A
C1385      C1390   1.391       .  A
C1385      H1391   1.083       .  S
C1386      C1387   1.404       .  A
C1387      C1388   1.397       .  A
C1387      H1392   1.083       .  S
C1388      C1389   1.412       .  A
C1388      H1393   1.079       .  S
C1389      C1390   1.415       .  A
C1390      H1394   1.083       .  S
C1395      C1396   1.412       .  A
C1395      C1400   1.398       .  A
C1395      H1401   1.083       .  S
C1396      C1397   1.416       .  A
C1397      C1398   1.395       .  A
C1397      H1402   1.080       .  S
C1398      C1399   1.401       .  A
C1398      H1403   1.083       .  S
C1399      C1400   1.405       .  A
C1400      H1404   1.083       .  S
C1405      C1406   1.416       .  A
C1405      C1410   1.409       .  A
C1405      H1411   1.083       .  S
C1406      C1407   1.416       .  A
C1407      C1408   1.386       .  A
C1407      H1412   1.078       .  S
C1408      C1409   1.398       .  A
C1408      H1413   1.084       .  S
C1409      C1410   1.404       .  A
C1410      H1414   1.083       .  S
C1415      C1416   1.413       .  A
C1415      C1420   1.412       .  A
C1415      H1421   1.081       .  S
C1416      C1417   1.410       .  A
C1417      C1418   1.380       .  A
C1417      H1422   1.083       .  S
C1418      C1419   1.401       .  A
C1418      H1423   1.083       .  S
C1419      C1420   1.410       .  A
C1420      H1424   1.083       .  S
C1425      C2101   1.551       .  S
C1425      C2108   1.553       .  S
C1425      C2118   1.552       .  S
C1425      C2128   1.543       .  S
C1426      C2058   1.553       .  S
C1426      C2068   1.550       .  S
C1426      C2078   1.545       .  S
C1426      C2088   1.552       .  S
Fe1427     O1443   2.083       .  S
Fe1427     O1433   2.035       .  S
Fe1427     O1440   2.063       .  S
Fe1427     O1432   2.056       .  S
Fe1427     O1438   1.941       .  S
Fe1428     O1431   2.059       .  S
Fe1428     O1435   2.071       .  S
Fe1428     O1439   2.079       .  S
Fe1428     O1444   2.037       .  S
Fe1428     O1438   1.939       .  S
Fe1429     O1447   2.077       .  S
Fe1429     O1434   2.087       .  S
Fe1429     O1441   2.107       .  S
Fe1429     O1430   2.079       .  S
Fe1429     O1438   1.967       .  S
O1430      C1437   1.269       .  A
O1431      C1445   1.269       .  A
O1432      C1437   1.269       .  A
O1433      C1436   1.269       .  A
O1434      C1446   1.274       .  A
O1435      C1448   1.269       .  A
C1436      O1441   1.277       .  A
C1436      C2121   1.477       .  S
C1437      C2081   1.480       .  S
O1439      C1442   1.272       .  A
O1440      C1442   1.267       .  A
C1442      C2038   1.483       .  S
O1443      C1448   1.271       .  A
O1444      C1446   1.269       .  A
C1445      O1447   1.272       .  A
C1445      C2018   1.470       .  S
C1446      C2028   1.467       .  S
C1448      C2048   1.473       .  S
Fe1449     O1465   2.078   1_556  S
Fe1449     O1455   2.036   1_556  S
Fe1449     O2174   2.063       .  S
Fe1449     O2166   2.039       .  S
Fe1449     O2172   1.955       .  S
Fe1450     O2165   2.035       .  S
Fe1450     O2169   2.056       .  S
Fe1450     O1461   2.072       .  S
Fe1450     O1466   2.036       .  S
Fe1450     O1460   1.949       .  S
Fe1451     O2181   2.079       .  S
Fe1451     O1456   2.099       .  S
Fe1451     O2175   2.102       .  S
Fe1451     O1452   2.089       .  S
Fe1451     O1460   1.985       .  S
O1452      C1459   1.272       .  A
O1453     Fe2162   2.032   1_554  S
O1453      C1467   1.264       .  A
O1454     Fe2161   2.044       .  S
O1454      C1459   1.267       .  A
O1455      C1458   1.268       .  A
O1456      C1468   1.277       .  A
O1457     Fe2162   2.074   1_554  S
O1457      C1470   1.272       .  A
C1458      O1463   1.273       .  A
C1458      C2131   1.484       .  S
C1459      C2091   1.474       .  S
O1460     Fe2161   1.954       .  S
O1461      C1464   1.268       .  A
O1462     Fe2161   2.060       .  S
O1462      C1464   1.265       .  A
O1463     Fe2163   2.091   1_554  S
C1464      C1998   1.482       .  S
O1465      C1470   1.272       .  A
O1466      C1468   1.270       .  A
C1467      O1469   1.271       .  A
C1467      C1978   1.480       .  S
C1468      C1988   1.472       .  S
O1469     Fe2163   2.083   1_554  S
C1470      C2008   1.489       .  S
C1471      C2031   1.517       .  S
C1471      C1472   1.536       .  S
C1471      C1477   1.525       .  S
C1471      C1475   1.537       .  S
C1473      C1474   1.537       .  S
C1473      C1958   1.474       .  S
C1474      C1478   1.536   1_455  S
C1474      H1480   1.109       .  S
C1475      H1481   1.081       .  S
C1475      C1476   1.372   1_655  D
C1476      C1968   1.490       .  S
C1478      C1991   1.469       .  S
Fe1483     O1499   2.053       .  S
Fe1483     O1489   2.044       .  S
Fe1483     O2208   2.055   1_554  S
Fe1483     O2200   2.043   1_554  S
Fe1483     O1494   1.958       .  S
Fe1484     O1487   2.049       .  S
Fe1484     O1491   2.047       .  S
Fe1484     O2207   2.078   1_554  S
Fe1484     O2212   2.043   1_554  S
Fe1484     O1494   1.965       .  S
Fe1485     O1503   2.082       .  S
Fe1485     O2202   2.098   1_554  S
Fe1485     O1497   2.119       .  S
Fe1485     O2198   2.098   1_554  S
Fe1485     O1494   1.987       .  S
O1486     Fe2197   2.093       .  S
O1486      C1493   1.271       .  A
O1487      C1501   1.268       .  A
O1488     Fe2195   2.051       .  S
O1488      C1493   1.268       .  A
O1489      C1492   1.268       .  A
O1490     Fe2197   2.098       .  S
O1490      C1502   1.277       .  A
O1491      C1504   1.263       .  A
C1492      O1497   1.278       .  A
C1492      C1948   1.490       .  S
C1493      C1941   1.488       .  S
O1495     Fe2196   2.085       .  S
O1495      C1498   1.273       .  A
O1496     Fe2195   2.052       .  S
O1496      C1498   1.269       .  A
C1498      C1918   1.484       .  S
O1499      C1504   1.265       .  A
O1500     Fe2196   2.040       .  S
O1500      C1502   1.267       .  A
C1501      O1503   1.273       .  A
C1501      C1928   1.471       .  S
C1502      C1971   1.484       .  S
C1504      C1908   1.467       .  S
Fe1505     O1521   2.047       .  S
Fe1505     O1511   2.056       .  S
Fe1505     O1518   2.061       .  S
Fe1505     O1510   2.040       .  S
Fe1505     O1516   1.950       .  S
Fe1506     O1509   2.045       .  S
Fe1506     O1513   2.086       .  S
Fe1506     O1517   2.054       .  S
Fe1506     O1522   2.057       .  S
Fe1506     O1516   1.959       .  S
Fe1507     O1525   2.097       .  S
Fe1507     O1512   2.077       .  S
Fe1507     O1519   2.094       .  S
Fe1507     O1508   2.119       .  S
Fe1507     O1516   1.979       .  S
O1508      C1515   1.278       .  A
O1509      C1523   1.267       .  A
O1510      C1515   1.268       .  A
O1511      C1514   1.268       .  A
O1512      C1524   1.273       .  A
O1513      C1526   1.274       .  A
C1514      O1519   1.272       .  A
C1514      C1891   1.491       .  S
C1515      C1898   1.487       .  S
O1517      C1520   1.264       .  A
O1518      C1520   1.266       .  A
C1520      C1861   1.475       .  S
O1521      C1526   1.269       .  A
O1522      C1524   1.270       .  A
C1523      O1525   1.276       .  A
C1523      C1878   1.487       .  S
C1524      C1961   1.471       .  S
C1526      C1868   1.482       .  S
C1527      C1838   1.557       .  S
C1527      C1848   1.553       .  S
C1527      C1901   1.558       .  S
C1527      C1938   1.550       .  S
C1528      C1818   1.560       .  S
C1528      C1828   1.556       .  S
C1528      C1888   1.553       .  S
C1528      C1951   1.562       .  S
C1529      C1981   1.520       .  S
C1529      C1530   1.528       .  S
C1529      C1535   1.539       .  S
C1529      C1533   1.539       .  S
C1531      C1532   1.538   1_655  S
C1531      C2021   1.471       .  S
C1532      C1536   1.537       .  S
C1532      H1538   1.109       .  S
C1533      H1539   1.082       .  S
C1533      C1534   1.372   1_655  D
C1534      C1881   1.494       .  S
C1535      H1540   1.087   1_655  S
C1536      C1931   1.475       .  S
Fe1541     O1557   2.052       .  S
Fe1541     O1547   2.062       .  S
Fe1541     O1554   2.075       .  S
Fe1541     O1546   2.035       .  S
Fe1541     O1552   1.939       .  S
Fe1542     O1545   2.038       .  S
Fe1542     O1549   2.081       .  S
Fe1542     O1553   2.070       .  S
Fe1542     O1558   2.060       .  S
Fe1542     O1552   1.945       .  S
Fe1543     O1561   2.088       .  S
Fe1543     O1548   2.072       .  S
Fe1543     O1555   2.079       .  S
Fe1543     O1544   2.108       .  S
Fe1543     O1552   1.968       .  S
O1544      C1551   1.277       .  A
O1545      C1559   1.269       .  A
O1546      C1551   1.269       .  A
O1547      C1550   1.270       .  A
O1548      C1560   1.271       .  A
O1549      C1562   1.272       .  A
C1550      O1555   1.269       .  A
C1550      C1798   1.485       .  S
C1551      C1808   1.479       .  S
O1553      C1556   1.270       .  A
O1554      C1556   1.271       .  A
C1556      C1821   1.484       .  S
O1557      C1562   1.268       .  A
O1558      C1560   1.269       .  A
C1559      O1561   1.275       .  A
C1559      C1788   1.470       .  S
C1560      C1781   1.468       .  S
C1562      C1851   1.481       .  S
Fe1563     O1579   2.071       .  S
Fe1563     O1569   2.042       .  S
Fe1563     O2288   2.058       .  S
Fe1563     O2280   2.056       .  S
Fe1563     O2286   1.941       .  S
Fe1564     O2279   2.057       .  S
Fe1564     O2283   2.067       .  S
Fe1564     O1575   2.080   1_556  S
Fe1564     O1580   2.039   1_556  S
Fe1564     O1574   1.944       .  S
Fe1565     O2295   2.074       .  S
Fe1565     O1570   2.091   1_556  S
Fe1565     O2289   2.114       .  S
Fe1565     O1566   2.076   1_556  S
Fe1565     O1574   1.970       .  S
O1566      C1573   1.268       .  A
O1567     Fe2276   2.055       .  S
O1567      C1581   1.269       .  A
O1568     Fe2275   2.055   1_554  S
O1568      C1573   1.268       .  A
O1569      C1572   1.270       .  A
O1570      C1582   1.275       .  A
O1571     Fe2276   2.067       .  S
O1571      C1584   1.270       .  A
C1572      O1577   1.279       .  A
C1572      C1758   1.486       .  S
C1573      C1768   1.479       .  S
O1574     Fe2275   1.940       .  S
O1575      C1578   1.271       .  A
O1576     Fe2275   2.058   1_554  S
O1576      C1578   1.269       .  A
O1577     Fe2277   2.117       .  S
C1578      C1831   1.484       .  S
O1579      C1584   1.270       .  A
O1580      C1582   1.269       .  A
C1581      O1583   1.272       .  A
C1581      C1738   1.472       .  S
C1582      C1748   1.473       .  S
O1583     Fe2277   2.077       .  S
C1584      C1841   1.481       .  S
C1585      C1761   1.558       .  S
C1585      C1858   1.554       .  S
C1586      C1771   1.546       .  S
C1586      C1871   1.552       .  S
C1587      C1791   1.520       .  S
C1587      C1588   1.528       .  S
C1587      C1593   1.538       .  S
C1587      C1591   1.543       .  S
C1588      H1595   1.087       .  S
C1588      C1589   1.355       .  D
C1589      C1590   1.534       .  S
C1589      C1741   1.466       .  S
C1590      C1594   1.537       .  S
C1590      C1592   1.551       .  S
C1590      H1596   1.108       .  S
C1591      H1597   1.080       .  S
C1591      C1592   1.372       .  D
C1592      C1728   1.497       .  S
C1593      H1598   1.086       .  S
C1593      C1594   1.365       .  D
C1594      C1718   1.476       .  S
C1599      C1698   1.561       .  S
C1599      C2001   1.560       .  S
Fe1600     O1616   2.062       .  S
Fe1600     O1606   2.063       .  S
Fe1600     O1613   2.061       .  S
Fe1600     O1605   2.057       .  S
Fe1600     O1611   1.973       .  S
Fe1601     O1604   2.043       .  S
Fe1601     O1608   2.051       .  S
Fe1601     O1612   2.064       .  S
Fe1601     O1617   2.050       .  S
Fe1601     O1611   1.975       .  S
Fe1602     O1620   2.088       .  S
Fe1602     O1607   2.081       .  S
Fe1602     O1614   2.091       .  S
Fe1602     O1603   2.108       .  S
Fe1602     O1611   1.995       .  S
O1603      C1610   1.275       .  A
O1604      C1618   1.266       .  A
O1605      C1610   1.268       .  A
O1606      C1609   1.268       .  A
O1607      C1619   1.272       .  A
O1608      C1621   1.264       .  A
C1609      O1614   1.272       .  A
C1609      C1701   1.476       .  S
C1610      C1688   1.496       .  S
O1612      C1615   1.269       .  A
O1613      C1615   1.270       .  A
C1615      C2111   1.480       .  S
O1616      C1621   1.267       .  A
O1617      C1619   1.267       .  A
C1618      O1620   1.274       .  A
C1618      C1721   1.474       .  S
C1619      C1678   1.483       .  S
C1621      C2061   1.473       .  S
C1622      C1691   1.562       .  S
C1622      C2011   1.580       .  S
Fe1623     O2351   2.042   1_554  S
Fe1623     O2341   2.075   1_554  S
Fe1623     O1636   2.076       .  S
Fe1623     O1628   2.039       .  S
Fe1623     O1634   1.964       .  S
Fe1624     O2339   2.035   1_554  S
Fe1624     O2343   2.078   1_554  S
Fe1624     O1635   2.037       .  S
Fe1624     O1640   2.049       .  S
Fe1624     O1634   1.959       .  S
Fe1625     O2355   2.098   1_554  S
Fe1625     O1630   2.080       .  S
Fe1625     O2349   2.088   1_554  S
Fe1625     O1626   2.113       .  S
Fe1625     O1634   1.982       .  S
O1626      C1633   1.278       .  A
O1627     Fe2336   2.039       .  S
O1627      C1641   1.268       .  A
O1628      C1633   1.266       .  A
O1629     Fe2335   2.085       .  S
O1629      C1632   1.272       .  A
O1630      C1642   1.270       .  A
O1631     Fe2336   2.078       .  S
O1631      C1644   1.272       .  A
C1632      O1637   1.269       .  A
C1632      C1708   1.482       .  S
C1633      C1671   1.481       .  S
O1635      C1638   1.263       .  A
O1636      C1638   1.270       .  A
O1637     Fe2337   2.082       .  S
C1638      C2098   1.471       .  S
O1639     Fe2335   2.050       .  S
O1639      C1644   1.269       .  A
O1640      C1642   1.265       .  A
C1641      O1643   1.277       .  A
C1641      C1731   1.485       .  S
C1642      C1658   1.474       .  S
O1643     Fe2337   2.101       .  S
C1644      C2071   1.479       .  S
C1645      C1751   1.521       .  S
C1645      C1646   1.538       .  S
C1645      C1651   1.528       .  S
C1645      C1649   1.542       .  S
C1646      H1653   1.087       .  S
C1646      C1647   1.364       .  D
C1647      C1648   1.536       .  S
C1647      C1661   1.474       .  S
C1648      C1652   1.536       .  S
C1648      C1650   1.549       .  S
C1648      H1654   1.109       .  S
C1649      H1655   1.081       .  S
C1649      C1650   1.373       .  D
C1650      C1681   1.493       .  S
C1651      H1656   1.087       .  S
C1651      C1652   1.357       .  D
C1652      C1778   1.469       .  S
C1657      C1658   1.404       .  A
C1657      C1662   1.402       .  A
C1657      H1663   1.083       .  S
C1658      C1659   1.405       .  A
C1659      C1660   1.395       .  A
C1659      H1664   1.084       .  S
C1660      C1661   1.399       .  A
C1660      H1665   1.081       .  S
C1661      C1662   1.405       .  A
C1662      H1666   1.083       .  S
C1667      C1668   1.422       .  A
C1667      C1672   1.405       .  A
C1667      H1673   1.077   1_565  S
C1668      C1669   1.414       .  A
C1669      C1670   1.397       .  A
C1669      H1674   1.075       .  S
C1670      C1671   1.403       .  A
C1670      H1675   1.084       .  S
C1671      C1672   1.397       .  A
C1672      H1676   1.083       .  S
C1677      C1678   1.406       .  A
C1677      C1682   1.396       .  A
C1677      H1683   1.083       .  S
C1678      C1679   1.405       .  A
C1679      C1680   1.401       .  A
C1679      H1684   1.083       .  S
C1680      C1681   1.409       .  A
C1680      H1685   1.082       .  S
C1681      C1682   1.404       .  A
C1682      H1686   1.080       .  S
C1687      C1688   1.403       .  A
C1687      C1692   1.394       .  A
C1687      H1693   1.084       .  S
C1688      C1689   1.408       .  A
C1689      C1690   1.416       .  A
C1689      H1694   1.083       .  S
C1690      C1691   1.420       .  A
C1690      H1695   1.082       .  S
C1691      C1692   1.415       .  A
C1692      H1696   1.081       .  S
C1697      C1698   1.419       .  A
C1697      C1702   1.397       .  A
C1697      H1703   1.082       .  S
C1698      C1699   1.411       .  A
C1699      C1700   1.407       .  A
C1699      H1704   1.082       .  S
C1700      C1701   1.405       .  A
C1700      H1705   1.083       .  S
C1701      C1702   1.396       .  A
C1702      H1706   1.083       .  S
C1707      C1708   1.408       .  A
C1707      C1712   1.413       .  A
C1707      H1713   1.083       .  S
C1708      C1709   1.394       .  A
C1709      C1710   1.395       .  A
C1709      H1714   1.084       .  S
C1710      C1711   1.421       .  A
C1710      H1715   1.082   1_565  S
C1711      C1712   1.413       .  A
C1712      H1716   1.082       .  S
C1717      C1718   1.400       .  A
C1717      C1722   1.396       .  A
C1717      H1723   1.081       .  S
C1718      C1719   1.404       .  A
C1719      C1720   1.400       .  A
C1719      H1724   1.083       .  S
C1720      C1721   1.404       .  A
C1720      H1725   1.083       .  S
C1721      C1722   1.406       .  A
C1722      H1726   1.084       .  S
C1727      C1728   1.412       .  A
C1727      C1732   1.403       .  A
C1727      H1733   1.081       .  S
C1728      C1729   1.403       .  A
C1729      C1730   1.392       .  A
C1729      H1734   1.078       .  S
C1730      C1731   1.406       .  A
C1730      H1735   1.083       .  S
C1731      C1732   1.404       .  A
C1732      H1736   1.083       .  S
C1737      C1738   1.407       .  A
C1737      C1742   1.392       .  A
C1737      H1743   1.084       .  S
C1738      C1739   1.402       .  A
C1739      C1740   1.402       .  A
C1739      H1744   1.083       .  S
C1740      C1741   1.406       .  A
C1740      H1745   1.083       .  S
C1741      C1742   1.396       .  A
C1742      H1746   1.084       .  S
C1747      C1748   1.401       .  A
C1747      C1752   1.386       .  A
C1747      H1753   1.083       .  S
C1748      C1749   1.404       .  A
C1749      C1750   1.404       .  A
C1749      H1754   1.083       .  S
C1750      C1751   1.412       .  A
C1750      H1755   1.078       .  S
C1751      C1752   1.406       .  A
C1752      H1756   1.084       .  S
C1757      C1758   1.399       .  A
C1757      C1762   1.389       .  A
C1757      H1763   1.084       .  S
C1758      C1759   1.406       .  A
C1759      C1760   1.412       .  A
C1759      H1764   1.083       .  S
C1760      C1761   1.417       .  A
C1760      H1765   1.083       .  S
C1761      C1762   1.416       .  A
C1762      H1766   1.078       .  S
C1767      C1768   1.407       .  A
C1767      C1772   1.411       .  A
C1767      H1773   1.083       .  S
C1768      C1769   1.399       .  A
C1769      C1770   1.382       .  A
C1769      H1774   1.084       .  S
C1770      C1771   1.411       .  A
C1770      H1775   1.083       .  S
C1771      C1772   1.415       .  A
C1772      H1776   1.081       .  S
C1777      C1778   1.397       .  A
C1777      C1782   1.395       .  A
C1777      H1783   1.084       .  S
C1778      C1779   1.407       .  A
C1779      C1780   1.399       .  A
C1779      H1784   1.083       .  S
C1780      C1781   1.399       .  A
C1780      H1785   1.083       .  S
C1781      C1782   1.407       .  A
C1782      H1786   1.084       .  S
C1787      C1788   1.402       .  A
C1787      C1792   1.387       .  A
C1787      H1793   1.083       .  S
C1788      C1789   1.402       .  A
C1789      C1790   1.401       .  A
C1789      H1794   1.083       .  S
C1790      C1791   1.412       .  A
C1790      H1795   1.077       .  S
C1791      C1792   1.406       .  A
C1792      H1796   1.084       .  S
C1797      C1798   1.399       .  A
C1797      C1802   1.383       .  A
C1797      H1803   1.084       .  S
C1798      C1799   1.409       .  A
C1799      C1800   1.413       .  A
C1799      H1804   1.083       .  S
C1800      C1801   1.414       .  A
C1800      H1805   1.081       .  S
C1801      C1802   1.412       .  A
C1802      H1806   1.083       .  S
C1807      C1808   1.398       .  A
C1807      C1812   1.385       .  A
C1807      H1813   1.084       .  S
C1808      C1809   1.404       .  A
C1809      C1810   1.409       .  A
C1809      H1814   1.083       .  S
C1810      C1811   1.416       .  A
C1810      H1815   1.083   1_565  S
C1811      C1812   1.416       .  A
C1812      H1816   1.077       .  S
C1817      C1818   1.412       .  A
C1817      C1822   1.393       .  A
C1817      H1823   1.083       .  S
C1818      C1819   1.417       .  A
C1819      C1820   1.404       .  A
C1819      H1824   1.079       .  S
C1820      C1821   1.404       .  A
C1820      H1825   1.083       .  S
C1821      C1822   1.403       .  A
C1822      H1826   1.083       .  S
C1827      C1828   1.412       .  A
C1827      C1832   1.397       .  A
C1827      H1833   1.083       .  S
C1828      C1829   1.416       .  A
C1829      C1830   1.398       .  A
C1829      H1834   1.080       .  S
C1830      C1831   1.403       .  A
C1830      H1835   1.083       .  S
C1831      C1832   1.405       .  A
C1832      H1836   1.083       .  S
C1837      C1838   1.417       .  A
C1837      C1842   1.402       .  A
C1837      H1843   1.079       .  S
C1838      C1839   1.412       .  A
C1839      C1840   1.392       .  A
C1839      H1844   1.083       .  S
C1840      C1841   1.403       .  A
C1840      H1845   1.083       .  S
C1841      C1842   1.403       .  A
C1842      H1846   1.083       .  S
C1847      C1848   1.412       .  A
C1847      C1852   1.396       .  A
C1847      H1853   1.083       .  S
C1848      C1849   1.415       .  A
C1849      C1850   1.396       .  A
C1849      H1854   1.080       .  S
C1850      C1851   1.403       .  A
C1850      H1855   1.083       .  S
C1851      C1852   1.404       .  A
C1852      H1856   1.083       .  S
C1857      C1858   1.412       .  A
C1857      C1862   1.391       .  A
C1857      H1863   1.083       .  S
C1858      C1859   1.416       .  A
C1859      C1860   1.398       .  A
C1859      H1864   1.079       .  S
C1860      C1861   1.402       .  A
C1860      H1865   1.083       .  S
C1861      C1862   1.401       .  A
C1862      H1866   1.083       .  S
C1867      C1868   1.404       .  A
C1867      C1872   1.394       .  A
C1867      H1873   1.083       .  S
C1868      C1869   1.404       .  A
C1869      C1870   1.398       .  A
C1869      H1874   1.083       .  S
C1870      C1871   1.413       .  A
C1870      H1875   1.083       .  S
C1871      C1872   1.413       .  A
C1872      H1876   1.080       .  S
C1877      C1878   1.408       .  A
C1877      C1882   1.395       .  A
C1877      H1883   1.083       .  S
C1878      C1879   1.405       .  A
C1879      C1880   1.403       .  A
C1879      H1884   1.083       .  S
C1880      C1881   1.410       .  A
C1880      H1885   1.082       .  S
C1881      C1882   1.403       .  A
C1882      H1886   1.080       .  S
C1887      C1888   1.411       .  A
C1887      C1892   1.385       .  A
C1887      H1893   1.083       .  S
C1888      C1889   1.416       .  A
C1889      C1890   1.417       .  A
C1889      H1894   1.081       .  S
C1890      C1891   1.410       .  A
C1890      H1895   1.083       .  S
C1891      C1892   1.402       .  A
C1892      H1896   1.084       .  S
C1897      C1898   1.400       .  A
C1897      C1902   1.390       .  A
C1897      H1903   1.084       .  S
C1898      C1899   1.405       .  A
C1899      C1900   1.412       .  A
C1899      H1904   1.083       .  S
C1900      C1901   1.417       .  A
C1900      H1905   1.083       .  S
C1901      C1902   1.416       .  A
C1902      H1906   1.078       .  S
C1907      C1908   1.399       .  A
C1907      C1912   1.387       .  A
C1907      H1913   1.083       .  S
C1908      C1909   1.402       .  A
C1909      C1910   1.396       .  A
C1909      H1914   1.083       .  S
C1910      C1911   1.414       .  A
C1910      H1915   1.079   1_565  S
C1911      C1912   1.413       .  A
C1912      H1916   1.083       .  S
C1917      C1918   1.404       .  A
C1917      C1922   1.399   1_565  A
C1917      H1923   1.083   1_565  S
C1918      C1919   1.404       .  A
C1919      C1920   1.395       .  A
C1919      H1924   1.083       .  S
C1920      C1921   1.414       .  A
C1920      H1925   1.080       .  S
C1921      C1922   1.413   1_565  A
C1927      C1928   1.405       .  A
C1927      C1932   1.396       .  A
C1927      H1933   1.084       .  S
C1928      C1929   1.402       .  A
C1929      C1930   1.400       .  A
C1929      H1934   1.083       .  S
C1930      C1931   1.405       .  A
C1930      H1935   1.083       .  S
C1931      C1932   1.400       .  A
C1937      C1938   1.410       .  A
C1937      C1942   1.383       .  A
C1937      H1943   1.083       .  S
C1938      C1939   1.415       .  A
C1939      C1940   1.416       .  A
C1939      H1944   1.081       .  S
C1940      C1941   1.410       .  A
C1940      H1945   1.083       .  S
C1941      C1942   1.401       .  A
C1942      H1946   1.084       .  S
C1947      C1948   1.400       .  A
C1947      C1952   1.392       .  A
C1947      H1953   1.084       .  S
C1948      C1949   1.406       .  A
C1949      C1950   1.414       .  A
C1949      H1954   1.083       .  S
C1950      C1951   1.418       .  A
C1950      H1955   1.083       .  S
C1951      C1952   1.416       .  A
C1952      H1956   1.078       .  S
C1957      C1958   1.405       .  A
C1957      C1962   1.400       .  A
C1957      H1963   1.083       .  S
C1958      C1959   1.400       .  A
C1959      C1960   1.396       .  A
C1959      H1964   1.082       .  S
C1960      C1961   1.405       .  A
C1960      H1965   1.084       .  S
C1961      C1962   1.403       .  A
C1962      H1966   1.083       .  S
C1967      C1968   1.410       .  A
C1967      C1972   1.400       .  A
C1967      H1973   1.082       .  S
C1968      C1969   1.403       .  A
C1969      C1970   1.396       .  A
C1970      C1971   1.409       .  A
C1970      H1975   1.083       .  S
C1971      C1972   1.403       .  A
C1972      H1976   1.083       .  S
C1977      C1978   1.404       .  A
C1977      C1982   1.406       .  A
C1977      H1983   1.083       .  S
C1978      C1979   1.406       .  A
C1979      C1980   1.383       .  A
C1979      H1984   1.083       .  S
C1980      C1981   1.402       .  A
C1980      H1985   1.084       .  S
C1981      C1982   1.414       .  A
C1982      H1986   1.079       .  S
C1987      C1988   1.404       .  A
C1987      C1992   1.406       .  A
C1987      H1993   1.083       .  S
C1988      C1989   1.405       .  A
C1989      C1990   1.388       .  A
C1989      H1994   1.084       .  S
C1990      C1991   1.397       .  A
C1990      H1995   1.084       .  S
C1991      C1992   1.406       .  A
C1992      H1996   1.083       .  S
C1997      C1998   1.406       .  A
C1997      C2002   1.403       .  A
C1997      H2003   1.083       .  S
C1998      C1999   1.400       .  A
C1999      C2000   1.392       .  A
C1999      H2004   1.083       .  S
C2000      C2001   1.416       .  A
C2001      C2002   1.412       .  A
C2002      H2006   1.078       .  S
C2007      C2008   1.401       .  A
C2007      C2012   1.403       .  A
C2007      H2013   1.083       .  S
C2008      C2009   1.401       .  A
C2009      C2010   1.398       .  A
C2009      H2014   1.083       .  S
C2010      C2011   1.417       .  A
C2010      H2015   1.077       .  S
C2011      C2012   1.422       .  A
C2012      H2016   1.073       .  S
C2017      C2018   1.400       .  A
C2017      C2022   1.400       .  A
C2017      H2023   1.083       .  S
C2018      C2019   1.408       .  A
C2019      C2020   1.396       .  A
C2019      H2024   1.084       .  S
C2020      C2021   1.397       .  A
C2021      C2022   1.407       .  A
C2022      H2026   1.083       .  S
C2027      C2028   1.403       .  A
C2027      C2032   1.403       .  A
C2027      H2033   1.083       .  S
C2028      C2029   1.400       .  A
C2029      C2030   1.383       .  A
C2029      H2034   1.084       .  S
C2030      C2031   1.405       .  A
C2030      H2035   1.084   1_565  S
C2031      C2032   1.412       .  A
C2032      H2036   1.078       .  S
C2037      C2038   1.399       .  A
C2037      C2042   1.389       .  A
C2037      H2043   1.083       .  S
C2038      C2039   1.408       .  A
C2039      C2040   1.406       .  A
C2039      H2044   1.083       .  S
C2040      C2041   1.413       .  A
C2040      H2045   1.077       .  S
C2041      C2042   1.416       .  A
C2047      C2048   1.393       .  A
C2047      C2052   1.396       .  A
C2047      H2053   1.084       .  S
C2048      C2049   1.399       .  A
C2049      C2050   1.405       .  A
C2049      H2054   1.083       .  S
C2050      C2051   1.422       .  A
C2050      H2055   1.083       .  S
C2051      C2052   1.425       .  A
C2052      H2056   1.077   1_565  S
C2057      C2058   1.414       .  A
C2057      C2062   1.397       .  A
C2057      H2063   1.080       .  S
C2058      C2059   1.414       .  A
C2059      C2060   1.392       .  A
C2059      H2064   1.083       .  S
C2060      C2061   1.400       .  A
C2060      H2065   1.083       .  S
C2061      C2062   1.403       .  A
C2062      H2066   1.083       .  S
C2067      C2068   1.411       .  A
C2067      C2072   1.397       .  A
C2067      H2073   1.083       .  S
C2068      C2069   1.414       .  A
C2069      C2070   1.394       .  A
C2069      H2074   1.081       .  S
C2070      C2071   1.403       .  A
C2070      H2075   1.083       .  S
C2071      C2072   1.404       .  A
C2072      H2076   1.083       .  S
C2077      C2078   1.411       .  A
C2077      C2082   1.382       .  A
C2077      H2083   1.083       .  S
C2078      C2079   1.414       .  A
C2079      C2080   1.412       .  A
C2079      H2084   1.081       .  S
C2080      C2081   1.408       .  A
C2080      H2085   1.083       .  S
C2081      C2082   1.399       .  A
C2082      H2086   1.084       .  S
C2087      C2088   1.417       .  A
C2087      C2092   1.410       .  A
C2087      H2093   1.083       .  S
C2088      C2089   1.415       .  A
C2089      C2090   1.386       .  A
C2089      H2094   1.079       .  S
C2090      C2091   1.397       .  A
C2090      H2095   1.085       .  S
C2091      C2092   1.403       .  A
C2092      H2096   1.083       .  S
C2097      C2098   1.399       .  A
C2097      C2102   1.392       .  A
C2097      H2103   1.083       .  S
C2098      C2099   1.403       .  A
C2099      C2100   1.394       .  A
C2099      H2104   1.083       .  S
C2100      C2101   1.412       .  A
C2100      H2105   1.079       .  S
C2101      C2102   1.415       .  A
C2102      H2106   1.083       .  S
C2107      C2108   1.412       .  A
C2107      C2112   1.398       .  A
C2107      H2113   1.083       .  S
C2108      C2109   1.415       .  A
C2109      C2110   1.394       .  A
C2109      H2114   1.080       .  S
C2110      C2111   1.401       .  A
C2110      H2115   1.083       .  S
C2111      C2112   1.404       .  A
C2112      H2116   1.083       .  S
C2117      C2118   1.416       .  A
C2117      C2122   1.408       .  A
C2117      H2123   1.083       .  S
C2118      C2119   1.416       .  A
C2119      C2120   1.386       .  A
C2119      H2124   1.078       .  S
C2120      C2121   1.398       .  A
C2120      H2125   1.084       .  S
C2121      C2122   1.404       .  A
C2122      H2126   1.083       .  S
C2127      C2128   1.412       .  A
C2127      C2132   1.411       .  A
C2127      H2133   1.081       .  S
C2128      C2129   1.411       .  A
C2129      C2130   1.380       .  A
C2129      H2134   1.083       .  S
C2130      C2131   1.401       .  A
C2130      H2135   1.083       .  S
C2131      C2132   1.410       .  A
C2132      H2136   1.083       .  S
C2137      C2813   1.549       .  S
C2137      C2820   1.551       .  S
C2137      C2830   1.551       .  S
C2137      C2840   1.545       .  S
C2138      C2770   1.552       .  S
C2138      C2780   1.550       .  S
C2138      C2790   1.545       .  S
C2138      C2800   1.551       .  S
Fe2139     O2155   2.081       .  S
Fe2139     O2145   2.040       .  S
Fe2139     O2152   2.066       .  S
Fe2139     O2144   2.055       .  S
Fe2139     O2150   1.937       .  S
Fe2140     O2143   2.057       .  S
Fe2140     O2147   2.069       .  S
Fe2140     O2151   2.085       .  S
Fe2140     O2156   2.039       .  S
Fe2140     O2150   1.935       .  S
Fe2141     O2159   2.077       .  S
Fe2141     O2146   2.088       .  S
Fe2141     O2153   2.109       .  S
Fe2141     O2142   2.079       .  S
Fe2141     O2150   1.963       .  S
O2142      C2149   1.269       .  A
O2143      C2157   1.269       .  A
O2144      C2149   1.268       .  A
O2145      C2148   1.270       .  A
O2146      C2158   1.275       .  A
O2147      C2160   1.269       .  A
C2148      O2153   1.278       .  A
C2148      C2833   1.481       .  S
C2149      C2793   1.480       .  S
O2151      C2154   1.272       .  A
O2152      C2154   1.268       .  A
C2154      C2750   1.481       .  S
O2155      C2160   1.270       .  A
O2156      C2158   1.270       .  A
C2157      O2159   1.272       .  A
C2157      C2730   1.471       .  S
C2158      C2740   1.469       .  S
C2160      C2760   1.470       .  S
Fe2161     O2177   2.083       .  S
Fe2161     O2167   2.033       .  S
Fe2162     O2173   2.066       .  S
Fe2162     O2178   2.053       .  S
Fe2162     O2172   1.952       .  S
Fe2163     O2168   2.083       .  S
Fe2163     O2164   2.094       .  S
Fe2163     O2172   1.987       .  S
O2164      C2171   1.273       .  A
O2165      C2179   1.264       .  A
O2166      C2171   1.266       .  A
O2167      C2170   1.268       .  A
O2168      C2180   1.273       .  A
O2169      C2182   1.268       .  A
C2170      O2175   1.275       .  A
C2170      C2843   1.487       .  S
C2171      C2803   1.474       .  S
O2173      C2176   1.266       .  A
O2174      C2176   1.264       .  A
C2176      C2710   1.483       .  S
O2177      C2182   1.272       .  A
O2178      C2180   1.271       .  A
C2179      O2181   1.270       .  A
C2179      C2690   1.478       .  S
C2180      C2700   1.462       .  S
C2182      C2720   1.482       .  S
C2183      C2743   1.517       .  S
C2183      C2184   1.536       .  S
C2183      C2189   1.525       .  S
C2183      C2187   1.539       .  S
C2185      C2186   1.537       .  S
C2185      C2670   1.474       .  S
C2186      C2190   1.544   1_455  S
C2186      H2192   1.109       .  S
C2187      H2193   1.081       .  S
C2187      C2188   1.374   1_655  D
C2188      C2680   1.496       .  S
C2190      C2703   1.484       .  S
Fe2195     O2211   2.061       .  S
Fe2195     O2201   2.040       .  S
Fe2195     O2206   1.949       .  S
Fe2196     O2199   2.054       .  S
Fe2196     O2203   2.050       .  S
Fe2196     O2206   1.957       .  S
Fe2197     O2215   2.075       .  S
Fe2197     O2209   2.125       .  S
Fe2197     O2206   1.978       .  S
O2198      C2205   1.272       .  A
O2199      C2213   1.268       .  A
O2200      C2205   1.267       .  A
O2201      C2204   1.268       .  A
O2202      C2214   1.276       .  A
O2203      C2216   1.263       .  A
C2204      O2209   1.280       .  A
C2204      C2660   1.489       .  S
C2205      C2653   1.489       .  S
O2207      C2210   1.272       .  A
O2208      C2210   1.269       .  A
C2210      C2630   1.483       .  S
O2211      C2216   1.267       .  A
O2212      C2214   1.267       .  A
C2213      O2215   1.272       .  A
C2213      C2640   1.467       .  S
C2214      C2683   1.488       .  S
C2216      C2620   1.471       .  S
Fe2217     O2233   2.049       .  S
Fe2217     O2223   2.049       .  S
Fe2217     O2230   2.058       .  S
Fe2217     O2222   2.038       .  S
Fe2217     O2228   1.955       .  S
Fe2218     O2221   2.048       .  S
Fe2218     O2225   2.085       .  S
Fe2218     O2229   2.054       .  S
Fe2218     O2234   2.056       .  S
Fe2218     O2228   1.962       .  S
Fe2219     O2237   2.096       .  S
Fe2219     O2224   2.081       .  S
Fe2219     O2231   2.098       .  S
Fe2219     O2220   2.118       .  S
Fe2219     O2228   1.985       .  S
O2220      C2227   1.278       .  A
O2221      C2235   1.268       .  A
O2222      C2227   1.268       .  A
O2223      C2226   1.267       .  A
O2224      C2236   1.274       .  A
O2225      C2238   1.274       .  A
C2226      O2231   1.272       .  A
C2226      C2603   1.492       .  S
C2227      C2610   1.486       .  S
O2229      C2232   1.263       .  A
O2230      C2232   1.265       .  A
C2232      C2573   1.473       .  S
O2233      C2238   1.269       .  A
O2234      C2236   1.269       .  A
C2235      O2237   1.276       .  A
C2235      C2590   1.489       .  S
C2236      C2673   1.473       .  S
C2238      C2580   1.482       .  S
C2239      C2550   1.558       .  S
C2239      C2560   1.554       .  S
C2239      C2613   1.558       .  S
C2239      C2650   1.549       .  S
C2240      C2530   1.562       .  S
C2240      C2540   1.556       .  S
C2240      C2600   1.552       .  S
C2240      C2663   1.562       .  S
C2241      C2693   1.519       .  S
C2241      C2242   1.527       .  S
C2241      C2247   1.538       .  S
C2241      C2245   1.541       .  S
C2243      C2244   1.536   1_655  S
C2243      C2733   1.469       .  S
C2244      C2248   1.538       .  S
C2244      H2250   1.109       .  S
C2245      H2251   1.082       .  S
C2245      C2246   1.374   1_655  D
C2246      C2593   1.497       .  S
C2247      H2252   1.087       .  S
C2248      C2643   1.478       .  S
Fe2253     O2269   2.054       .  S
Fe2253     O2259   2.057       .  S
Fe2253     O2266   2.073       .  S
Fe2253     O2258   2.034       .  S
Fe2253     O2264   1.940       .  S
Fe2254     O2257   2.038       .  S
Fe2254     O2261   2.082       .  S
Fe2254     O2265   2.072       .  S
Fe2254     O2270   2.058       .  S
Fe2254     O2264   1.945       .  S
Fe2255     O2273   2.089       .  S
Fe2255     O2260   2.076       .  S
Fe2255     O2267   2.084       .  S
Fe2255     O2256   2.110       .  S
Fe2255     O2264   1.971       .  S
O2256      C2263   1.277       .  A
O2257      C2271   1.269       .  A
O2258      C2263   1.269       .  A
O2259      C2262   1.269       .  A
O2260      C2272   1.271       .  A
O2261      C2274   1.272       .  A
C2262      O2267   1.269       .  A
C2262      C2510   1.486       .  S
C2263      C2520   1.479       .  S
O2265      C2268   1.270       .  A
O2266      C2268   1.270       .  A
C2268      C2533   1.484       .  S
O2269      C2274   1.268       .  A
O2270      C2272   1.269       .  A
C2271      O2273   1.276       .  A
C2271      C2500   1.471       .  S
C2272      C2493   1.471       .  S
C2274      C2563   1.482       .  S
Fe2275     O2291   2.070       .  S
Fe2275     O2281   2.041       .  S
Fe2276     O2287   2.077       .  S
Fe2276     O2292   2.039       .  S
Fe2276     O2286   1.947       .  S
Fe2277     O2282   2.095       .  S
Fe2277     O2278   2.079       .  S
Fe2277     O2286   1.971       .  S
O2278      C2285   1.269       .  A
O2279      C2293   1.269       .  A
O2280      C2285   1.269       .  A
O2281      C2284   1.270       .  A
O2282      C2294   1.276       .  A
O2283      C2296   1.270       .  A
C2284      O2289   1.278       .  A
C2284      C2470   1.484       .  S
C2285      C2480   1.481       .  S
O2287      C2290   1.270       .  A
O2288      C2290   1.268       .  A
C2290      C2543   1.483       .  S
O2291      C2296   1.270       .  A
O2292      C2294   1.269       .  A
C2293      O2295   1.271       .  A
C2293      C2450   1.469       .  S
C2294      C2460   1.474       .  S
C2296      C2553   1.481       .  S
C2297      C2473   1.557       .  S
C2297      C2570   1.554       .  S
C2298      C2483   1.547       .  S
C2298      C2583   1.553       .  S
C2299      C2503   1.520       .  S
C2299      C2300   1.529       .  S
C2299      C2305   1.537       .  S
C2299      C2303   1.541       .  S
C2300      H2307   1.087       .  S
C2300      C2301   1.355       .  D
C2301      C2302   1.533       .  S
C2301      C2453   1.466       .  S
C2302      C2306   1.536       .  S
C2302      C2304   1.551       .  S
C2302      H2308   1.108       .  S
C2303      H2309   1.080       .  S
C2303      C2304   1.371       .  D
C2304      C2440   1.495       .  S
C2305      H2310   1.087       .  S
C2305      C2306   1.365       .  D
C2306      C2430   1.475       .  S
C2311      C2410   1.564       .  S
C2311      C2713   1.562       .  S
Fe2312     O2328   2.065       .  S
Fe2312     O2318   2.061       .  S
Fe2312     O2325   2.058       .  S
Fe2312     O2317   2.064       .  S
Fe2312     O2323   1.968       .  S
Fe2313     O2316   2.044       .  S
Fe2313     O2320   2.047       .  S
Fe2313     O2324   2.066       .  S
Fe2313     O2329   2.046       .  S
Fe2313     O2323   1.971       .  S
Fe2314     O2332   2.081       .  S
Fe2314     O2319   2.089       .  S
Fe2314     O2326   2.098       .  S
Fe2314     O2315   2.100       .  S
Fe2314     O2323   1.992       .  S
O2315      C2322   1.273       .  A
O2316      C2330   1.266       .  A
O2317      C2322   1.270       .  A
O2318      C2321   1.268       .  A
O2319      C2331   1.274       .  A
O2320      C2333   1.263       .  A
C2321      O2326   1.274       .  A
C2321      C2413   1.478       .  S
C2322      C2400   1.494       .  S
O2324      C2327   1.269       .  A
O2325      C2327   1.270       .  A
C2327      C2823   1.480       .  S
O2328      C2333   1.267       .  A
O2329      C2331   1.266       .  A
C2330      O2332   1.273       .  A
C2330      C2433   1.469       .  S
C2331      C2390   1.485       .  S
C2333      C2773   1.472       .  S
C2334      C2403   1.560       .  S
C2334      C2723   1.576       .  S
Fe2335     O2348   2.076       .  S
Fe2335     O2340   2.044       .  S
Fe2335     O2346   1.951       .  S
Fe2336     O2347   2.041       .  S
Fe2336     O2352   2.054       .  S
Fe2336     O2346   1.947       .  S
Fe2337     O2342   2.075       .  S
Fe2337     O2338   2.123       .  S
Fe2337     O2346   1.965       .  S
O2338      C2345   1.280       .  A
O2339      C2353   1.268       .  A
O2340      C2345   1.267       .  A
O2341      C2344   1.269       .  A
O2342      C2354   1.271       .  A
O2343      C2356   1.270       .  A
C2344      O2349   1.271       .  A
C2344      C2420   1.483       .  S
C2345      C2383   1.486       .  S
O2347      C2350   1.263       .  A
O2348      C2350   1.271       .  A
C2350      C2810   1.472       .  S
O2351      C2356   1.265       .  A
O2352      C2354   1.268       .  A
C2353      O2355   1.278       .  A
C2353      C2443   1.483       .  S
C2354      C2370   1.469       .  S
C2356      C2783   1.479       .  S
C2357      C2463   1.523       .  S
C2357      C2358   1.538       .  S
C2357      C2363   1.529       .  S
C2357      C2361   1.542       .  S
C2358      H2365   1.087       .  S
C2358      C2359   1.364       .  D
C2359      C2360   1.537       .  S
C2359      C2373   1.474       .  S
C2360      C2364   1.536       .  S
C2360      C2362   1.550       .  S
C2360      H2366   1.109       .  S
C2361      H2367   1.081       .  S
C2361      C2362   1.372       .  D
C2362      C2393   1.494       .  S
C2363      H2368   1.087       .  S
C2363      C2364   1.357       .  D
C2364      C2490   1.469       .  S
C2369      C2370   1.403       .  A
C2369      C2374   1.401       .  A
C2369      H2375   1.083       .  S
C2370      C2371   1.404       .  A
C2371      C2372   1.395       .  A
C2371      H2376   1.084       .  S
C2372      C2373   1.399       .  A
C2372      H2377   1.081       .  S
C2373      C2374   1.405       .  A
C2374      H2378   1.083       .  S
C2379      C2380   1.421       .  A
C2379      C2384   1.406       .  A
C2379      H2385   1.075   1_565  S
C2380      C2381   1.415       .  A
C2381      C2382   1.400       .  A
C2381      H2386   1.076       .  S
C2382      C2383   1.403       .  A
C2382      H2387   1.084       .  S
C2383      C2384   1.398       .  A
C2384      H2388   1.083       .  S
C2389      C2390   1.407       .  A
C2389      C2394   1.396       .  A
C2389      H2395   1.083       .  S
C2390      C2391   1.405       .  A
C2391      C2392   1.402       .  A
C2391      H2396   1.083       .  S
C2392      C2393   1.410       .  A
C2392      H2397   1.082       .  S
C2393      C2394   1.404       .  A
C2394      H2398   1.079       .  S
C2399      C2400   1.401       .  A
C2399      C2404   1.392       .  A
C2399      H2405   1.084       .  S
C2400      C2401   1.409       .  A
C2401      C2402   1.417       .  A
C2401      H2406   1.083       .  S
C2402      C2403   1.418       .  A
C2402      H2407   1.082       .  S
C2403      C2404   1.415       .  A
C2404      H2408   1.082       .  S
C2409      C2410   1.420       .  A
C2409      C2414   1.398       .  A
C2409      H2415   1.082       .  S
C2410      C2411   1.411       .  A
C2411      C2412   1.408       .  A
C2411      H2416   1.082       .  S
C2412      C2413   1.406       .  A
C2412      H2417   1.083       .  S
C2413      C2414   1.396       .  A
C2414      H2418   1.083       .  S
C2419      C2420   1.405       .  A
C2419      C2424   1.407       .  A
C2419      H2425   1.083       .  S
C2420      C2421   1.399       .  A
C2421      C2422   1.402       .  A
C2421      H2426   1.083       .  S
C2422      C2423   1.418       .  A
C2422      H2427   1.083   1_565  S
C2423      C2424   1.412       .  A
C2424      H2428   1.080       .  S
C2429      C2430   1.400       .  A
C2429      C2434   1.396       .  A
C2429      H2435   1.081       .  S
C2430      C2431   1.404       .  A
C2431      C2432   1.399       .  A
C2431      H2436   1.083       .  S
C2432      C2433   1.402       .  A
C2432      H2437   1.083       .  S
C2433      C2434   1.405       .  A
C2434      H2438   1.084       .  S
C2439      C2440   1.413       .  A
C2439      C2444   1.402       .  A
C2439      H2445   1.081       .  S
C2440      C2441   1.402       .  A
C2441      C2442   1.392       .  A
C2441      H2446   1.078       .  S
C2442      C2443   1.407       .  A
C2442      H2447   1.083       .  S
C2443      C2444   1.403       .  A
C2444      H2448   1.083       .  S
C2449      C2450   1.407       .  A
C2449      C2454   1.392       .  A
C2449      H2455   1.084       .  S
C2450      C2451   1.401       .  A
C2451      C2452   1.401       .  A
C2451      H2456   1.083       .  S
C2452      C2453   1.406       .  A
C2452      H2457   1.083       .  S
C2453      C2454   1.396       .  A
C2454      H2458   1.084       .  S
C2459      C2460   1.402       .  A
C2459      C2464   1.387       .  A
C2459      H2465   1.083       .  S
C2460      C2461   1.403       .  A
C2461      C2462   1.404       .  A
C2461      H2466   1.083       .  S
C2462      C2463   1.413       .  A
C2462      H2467   1.078       .  S
C2463      C2464   1.405       .  A
C2464      H2468   1.084       .  S
C2469      C2470   1.399       .  A
C2469      C2474   1.387       .  A
C2469      H2475   1.084       .  S
C2470      C2471   1.406       .  A
C2471      C2472   1.411       .  A
C2471      H2476   1.083       .  S
C2472      C2473   1.417       .  A
C2472      H2477   1.083       .  S
C2473      C2474   1.416       .  A
C2474      H2478   1.077       .  S
C2479      C2480   1.408       .  A
C2479      C2484   1.412       .  A
C2479      H2485   1.083       .  S
C2480      C2481   1.400       .  A
C2481      C2482   1.383       .  A
C2481      H2486   1.084       .  S
C2482      C2483   1.411       .  A
C2482      H2487   1.083       .  S
C2483      C2484   1.415       .  A
C2484      H2488   1.081       .  S
C2489      C2490   1.397       .  A
C2489      C2494   1.394       .  A
C2489      H2495   1.084       .  S
C2490      C2491   1.407       .  A
C2491      C2492   1.401       .  A
C2491      H2496   1.083       .  S
C2492      C2493   1.401       .  A
C2492      H2497   1.083       .  S
C2493      C2494   1.407       .  A
C2494      H2498   1.084       .  S
C2499      C2500   1.402       .  A
C2499      C2504   1.386       .  A
C2499      H2505   1.083       .  S
C2500      C2501   1.402       .  A
C2501      C2502   1.401       .  A
C2501      H2506   1.083       .  S
C2502      C2503   1.412       .  A
C2502      H2507   1.077       .  S
C2503      C2504   1.405       .  A
C2504      H2508   1.084       .  S
C2509      C2510   1.400       .  A
C2509      C2514   1.382       .  A
C2509      H2515   1.084       .  S
C2510      C2511   1.409       .  A
C2511      C2512   1.414       .  A
C2511      H2516   1.083       .  S
C2512      C2513   1.415       .  A
C2512      H2517   1.081       .  S
C2513      C2514   1.411       .  A
C2514      H2518   1.083       .  S
C2519      C2520   1.398       .  A
C2519      C2524   1.386       .  A
C2519      H2525   1.084       .  S
C2520      C2521   1.404       .  A
C2521      C2522   1.409       .  A
C2521      H2526   1.083       .  S
C2522      C2523   1.416       .  A
C2522      H2527   1.083   1_565  S
C2523      C2524   1.416       .  A
C2524      H2528   1.077       .  S
C2529      C2530   1.413       .  A
C2529      C2534   1.394       .  A
C2529      H2535   1.083       .  S
C2530      C2531   1.418       .  A
C2531      C2532   1.403       .  A
C2531      H2536   1.079       .  S
C2532      C2533   1.403       .  A
C2532      H2537   1.083       .  S
C2533      C2534   1.404       .  A
C2534      H2538   1.083       .  S
C2539      C2540   1.412       .  A
C2539      C2544   1.397       .  A
C2539      H2545   1.083       .  S
C2540      C2541   1.416       .  A
C2541      C2542   1.397       .  A
C2541      H2546   1.080       .  S
C2542      C2543   1.402       .  A
C2542      H2547   1.083       .  S
C2543      C2544   1.405       .  A
C2544      H2548   1.083       .  S
C2549      C2550   1.417       .  A
C2549      C2554   1.402       .  A
C2549      H2555   1.079       .  S
C2550      C2551   1.412       .  A
C2551      C2552   1.393       .  A
C2551      H2556   1.083       .  S
C2552      C2553   1.403       .  A
C2552      H2557   1.083       .  S
C2553      C2554   1.403       .  A
C2554      H2558   1.083       .  S
C2559      C2560   1.412       .  A
C2559      C2564   1.397       .  A
C2559      H2565   1.083       .  S
C2560      C2561   1.415       .  A
C2561      C2562   1.396       .  A
C2561      H2566   1.081       .  S
C2562      C2563   1.403       .  A
C2562      H2567   1.083       .  S
C2563      C2564   1.405       .  A
C2564      H2568   1.083       .  S
C2569      C2570   1.413       .  A
C2569      C2574   1.391       .  A
C2569      H2575   1.083       .  S
C2570      C2571   1.416       .  A
C2571      C2572   1.397       .  A
C2571      H2576   1.079       .  S
C2572      C2573   1.401       .  A
C2572      H2577   1.083       .  S
C2573      C2574   1.401       .  A
C2574      H2578   1.083       .  S
C2579      C2580   1.404       .  A
C2579      C2584   1.394       .  A
C2579      H2585   1.083       .  S
C2580      C2581   1.404       .  A
C2581      C2582   1.398       .  A
C2581      H2586   1.083       .  S
C2582      C2583   1.413       .  A
C2582      H2587   1.083       .  S
C2583      C2584   1.413       .  A
C2584      H2588   1.080       .  S
C2589      C2590   1.408       .  A
C2589      C2594   1.396       .  A
C2589      H2595   1.083       .  S
C2590      C2591   1.405       .  A
C2591      C2592   1.404       .  A
C2591      H2596   1.083       .  S
C2592      C2593   1.411       .  A
C2592      H2597   1.082       .  S
C2593      C2594   1.404       .  A
C2594      H2598   1.079       .  S
C2599      C2600   1.410       .  A
C2599      C2604   1.384       .  A
C2599      H2605   1.083       .  S
C2600      C2601   1.416       .  A
C2601      C2602   1.417       .  A
C2601      H2606   1.081       .  S
C2602      C2603   1.410       .  A
C2602      H2607   1.083       .  S
C2603      C2604   1.403       .  A
C2604      H2608   1.083       .  S
C2609      C2610   1.400       .  A
C2609      C2614   1.389       .  A
C2609      H2615   1.084       .  S
C2610      C2611   1.405       .  A
C2611      C2612   1.412       .  A
C2611      H2616   1.083       .  S
C2612      C2613   1.418       .  A
C2612      H2617   1.083       .  S
C2613      C2614   1.415       .  A
C2614      H2618   1.078       .  S
C2619      C2620   1.399       .  A
C2619      C2624   1.389       .  A
C2619      H2625   1.083       .  S
C2620      C2621   1.402       .  A
C2621      C2622   1.398       .  A
C2621      H2626   1.083       .  S
C2622      C2623   1.415       .  A
C2622      H2627   1.079   1_565  S
C2623      C2624   1.413       .  A
C2624      H2628   1.083       .  S
C2629      C2630   1.404       .  A
C2629      C2634   1.398   1_565  A
C2629      H2635   1.083   1_565  S
C2630      C2631   1.404       .  A
C2631      C2632   1.395       .  A
C2631      H2636   1.083       .  S
C2632      C2633   1.413       .  A
C2632      H2637   1.080       .  S
C2633      C2634   1.413   1_565  A
C2639      C2640   1.403       .  A
C2639      C2644   1.395       .  A
C2639      H2645   1.084       .  S
C2640      C2641   1.402       .  A
C2641      C2642   1.400       .  A
C2641      H2646   1.083       .  S
C2642      C2643   1.406       .  A
C2642      H2647   1.083       .  S
C2643      C2644   1.400       .  A
C2649      C2650   1.409       .  A
C2649      C2654   1.382       .  A
C2649      H2655   1.083       .  S
C2650      C2651   1.416       .  A
C2651      C2652   1.416       .  A
C2651      H2656   1.081       .  S
C2652      C2653   1.409       .  A
C2652      H2657   1.083       .  S
C2653      C2654   1.402       .  A
C2654      H2658   1.084       .  S
C2659      C2660   1.401       .  A
C2659      C2664   1.391       .  A
C2659      H2665   1.084       .  S
C2660      C2661   1.405       .  A
C2661      C2662   1.413       .  A
C2661      H2666   1.083       .  S
C2662      C2663   1.419       .  A
C2662      H2667   1.083       .  S
C2663      C2664   1.415       .  A
C2664      H2668   1.077       .  S
C2669      C2670   1.405       .  A
C2669      C2674   1.400       .  A
C2669      H2675   1.083       .  S
C2670      C2671   1.400       .  A
C2671      C2672   1.397       .  A
C2671      H2676   1.082       .  S
C2672      C2673   1.406       .  A
C2672      H2677   1.084       .  S
C2673      C2674   1.403       .  A
C2674      H2678   1.083       .  S
C2679      C2680   1.411       .  A
C2679      C2684   1.402       .  A
C2679      H2685   1.082       .  S
C2680      C2681   1.404       .  A
C2681      C2682   1.396       .  A
C2682      C2683   1.408       .  A
C2682      H2687   1.083       .  S
C2683      C2684   1.404       .  A
C2684      H2688   1.083       .  S
C2689      C2690   1.404       .  A
C2689      C2694   1.405       .  A
C2689      H2695   1.083       .  S
C2690      C2691   1.405       .  A
C2691      C2692   1.383       .  A
C2691      H2696   1.083       .  S
C2692      C2693   1.403       .  A
C2692      H2697   1.084       .  S
C2693      C2694   1.413       .  A
C2694      H2698   1.079       .  S
C2699      C2700   1.395       .  A
C2699      C2704   1.391       .  A
C2699      H2705   1.084       .  S
C2700      C2701   1.406       .  A
C2701      C2702   1.402       .  A
C2701      H2706   1.083       .  S
C2702      C2703   1.401       .  A
C2702      H2707   1.083       .  S
C2703      C2704   1.411       .  A
C2704      H2708   1.083       .  S
C2709      C2710   1.406       .  A
C2709      C2714   1.404       .  A
C2709      H2715   1.083       .  S
C2710      C2711   1.400       .  A
C2711      C2712   1.392       .  A
C2711      H2716   1.083       .  S
C2712      C2713   1.416       .  A
C2713      C2714   1.413       .  A
C2714      H2718   1.077       .  S
C2719      C2720   1.401       .  A
C2719      C2724   1.398       .  A
C2719      H2725   1.083       .  S
C2720      C2721   1.399       .  A
C2721      C2722   1.397       .  A
C2721      H2726   1.083       .  S
C2722      C2723   1.418       .  A
C2722      H2727   1.074       .  S
C2723      C2724   1.420       .  A
C2724      H2728   1.074       .  S
C2729      C2730   1.400       .  A
C2729      C2734   1.400       .  A
C2729      H2735   1.083       .  S
C2730      C2731   1.408       .  A
C2731      C2732   1.395       .  A
C2731      H2736   1.084       .  S
C2732      C2733   1.396       .  A
C2733      C2734   1.407       .  A
C2734      H2738   1.083       .  S
C2739      C2740   1.404       .  A
C2739      C2744   1.404       .  A
C2739      H2745   1.083       .  S
C2740      C2741   1.400       .  A
C2741      C2742   1.383       .  A
C2741      H2746   1.084       .  S
C2742      C2743   1.405       .  A
C2742      H2747   1.084   1_565  S
C2743      C2744   1.411       .  A
C2744      H2748   1.079       .  S
C2749      C2750   1.398       .  A
C2749      C2754   1.394       .  A
C2749      H2755   1.083       .  S
C2750      C2751   1.405       .  A
C2751      C2752   1.406       .  A
C2751      H2756   1.083       .  S
C2752      C2753   1.415       .  A
C2752      H2757   1.080       .  S
C2753      C2754   1.417       .  A
C2759      C2760   1.393       .  A
C2759      C2764   1.395       .  A
C2759      H2765   1.084       .  S
C2760      C2761   1.399       .  A
C2761      C2762   1.404       .  A
C2761      H2766   1.083       .  S
C2762      C2763   1.421       .  A
C2762      H2767   1.083       .  S
C2763      C2764   1.425       .  A
C2764      H2768   1.077   1_565  S
C2769      C2770   1.414       .  A
C2769      C2774   1.396       .  A
C2769      H2775   1.080       .  S
C2770      C2771   1.414       .  A
C2771      C2772   1.392       .  A
C2771      H2776   1.083       .  S
C2772      C2773   1.399       .  A
C2772      H2777   1.083       .  S
C2773      C2774   1.403       .  A
C2774      H2778   1.083       .  S
C2779      C2780   1.413       .  A
C2779      C2784   1.397       .  A
C2779      H2785   1.083       .  S
C2780      C2781   1.412       .  A
C2781      C2782   1.393       .  A
C2781      H2786   1.081       .  S
C2782      C2783   1.404       .  A
C2782      H2787   1.083       .  S
C2783      C2784   1.403       .  A
C2784      H2788   1.083       .  S
C2789      C2790   1.411       .  A
C2789      C2794   1.383       .  A
C2789      H2795   1.083       .  S
C2790      C2791   1.414       .  A
C2791      C2792   1.410       .  A
C2791      H2796   1.081       .  S
C2792      C2793   1.407       .  A
C2792      H2797   1.083       .  S
C2793      C2794   1.400       .  A
C2794      H2798   1.084       .  S
C2799      C2800   1.417       .  A
C2799      C2804   1.409       .  A
C2799      H2805   1.083       .  S
C2800      C2801   1.414       .  A
C2801      C2802   1.386       .  A
C2801      H2806   1.078       .  S
C2802      C2803   1.398       .  A
C2802      H2807   1.085       .  S
C2803      C2804   1.402       .  A
C2804      H2808   1.083       .  S
C2809      C2810   1.399       .  A
C2809      C2814   1.390       .  A
C2809      H2815   1.083       .  S
C2810      C2811   1.404       .  A
C2811      C2812   1.396       .  A
C2811      H2816   1.083       .  S
C2812      C2813   1.413       .  A
C2812      H2817   1.079       .  S
C2813      C2814   1.413       .  A
C2814      H2818   1.083       .  S
C2819      C2820   1.412       .  A
C2819      C2824   1.398       .  A
C2819      H2825   1.083       .  S
C2820      C2821   1.414       .  A
C2821      C2822   1.393       .  A
C2821      H2826   1.081       .  S
C2822      C2823   1.402       .  A
C2822      H2827   1.083       .  S
C2823      C2824   1.405       .  A
C2824      H2828   1.083       .  S
C2829      C2830   1.414       .  A
C2829      C2834   1.408       .  A
C2829      H2835   1.083       .  S
C2830      C2831   1.416       .  A
C2831      C2832   1.387       .  A
C2831      H2836   1.079       .  S
C2832      C2833   1.399       .  A
C2832      H2837   1.084       .  S
C2833      C2834   1.405       .  A
C2834      H2838   1.083       .  S
C2839      C2840   1.413       .  A
C2839      C2844   1.413       .  A
C2839      H2845   1.081       .  S
C2840      C2841   1.410       .  A
C2841      C2842   1.380       .  A
C2841      H2846   1.083       .  S
C2842      C2843   1.402       .  A
C2842      H2847   1.083       .  S
C2843      C2844   1.410       .  A
C2844      H2848   1.083       .  S
