geometry optimzed in LAMMPS
_audit_creation_date              2020-11-30 
_audit_creation_method            'lammps2cif' 
_symmetry_space_group_name_H-M    'P1' 
_symmetry_Int_Tables_number       1 
_symmetry_cell_setting            triclinic 
loop_ 
_symmetry_equiv_pos_as_xyz 
  x,y,z 
_cell_length_a                    39.73453533 
_cell_length_b                    39.6556724640582 
_cell_length_c                    39.58832877657038 
_cell_angle_alpha                 90.14407001542283 
_cell_angle_beta                  89.60231571662109 
_cell_angle_gamma                 89.64768779427476 
loop_ 
_atom_site_label 
_atom_site_type_symbol 
_atom_site_fract_x 
_atom_site_fract_y 
_atom_site_fract_z 
_atom_site_charge 
N1          N  0.00668064  0.25177194  0.19621336    -0.36800
N2          N  0.00818973  0.19723242  0.24494095    -0.57400
N3          N  0.99716159  0.24613953  0.29908300    -0.36800
N4          N  0.99834379  0.30065022  0.24996441    -0.57400
C5          C  0.01664893  0.22587501  0.17618854     0.26800
C6          C  0.01276548  0.28063646  0.17913906     0.26800
C7          C  0.00453507  0.21830205  0.31734089     0.26800
C8          C  0.00010024  0.27308812  0.31988305     0.26800
C9          C  0.00663936  0.17867113  0.21630900     0.35400
C10         C  0.00298462  0.17570452  0.27082413     0.35400
C11         C  0.99327919  0.32115270  0.22327553     0.35400
C12         C  0.98872815  0.31818210  0.27767987     0.35400
C13         C  0.02907323  0.23834535  0.14591971    -0.22100
C14         C  0.02681912  0.27293787  0.14785549    -0.22100
C15         C  0.01133227  0.22758420  0.35039685    -0.22100
C16         C  0.00880341  0.26216984  0.35193424    -0.22100
C17         C  0.00102154  0.14509766  0.22406558    -0.23200
C18         C  0.99891356  0.14318155  0.25863212    -0.23200
C19         C  0.98030989  0.35190694  0.23405965    -0.23200
C20         C  0.97755725  0.35007219  0.26860447    -0.23200
C21         C  0.01206950  0.19129534  0.18336084    -0.18500
C22         C  0.00296783  0.31342319  0.18973011    -0.18500
C23         C  0.99332599  0.30707420  0.31120818    -0.18500
C24         C  0.00370603  0.18463406  0.30540420    -0.18500
H25         H  0.03824274  0.22397228  0.12443655     0.14400
H26         H  0.03380169  0.29038978  0.12807047     0.14400
H27         H  0.01749626  0.21116534  0.37128677     0.14400
H28         H  0.01252760  0.27748134  0.37425487     0.14400
H29         H  0.99910395  0.12409999  0.20667883     0.12700
H30         H  0.99495501  0.12041776  0.27311693     0.12700
H31         H  0.97428259  0.37366260  0.21874195     0.12700
H32         H  0.96900150  0.37013320  0.28521478     0.12700
H33         H  0.99227152  0.24959550  0.21804716     0.25900
H34         H  0.98730258  0.24638074  0.27488776     0.25900
O35         O  0.00517771  0.09886730  0.04654945    -0.86700
O36         O  0.00046167  0.40706290  0.05654196    -0.86900
O37         O  0.45090640  0.00686874  0.09781539    -0.88500
O38         O  0.06040295  0.99811654  0.08793336    -0.87300
O39         O  0.09965653  0.49826814  0.04579869    -0.86900
O40         O  0.40785766  0.50426472  0.05937136    -0.88300
O41         O  0.00269185  0.44936297  0.09611865    -0.86700
O42         O  0.00837556  0.06017142  0.08956852    -0.86300
Zr43       Zr  0.00336213  0.50291008  0.06559814     2.84300
O44         O  0.03388418  0.46620767  0.03054411    -1.08300
O45         O  0.46809951  0.03625167  0.03199632    -1.09000
C46         C  0.00793740  0.09071644  0.07787924     1.06400
C47         C  0.00179893  0.41795592  0.08730807     1.06300
C48         C  0.41946184  0.00632748  0.08977339     1.09300
C49         C  0.09118755  0.99817760  0.07731765     1.07100
H50         H  0.45260083  0.45564948  0.05103366     0.32700
O51         O  0.46609956  0.46857848  0.03541557    -1.29300
H52         H  0.05142819  0.04782557  0.04061522     0.32300
O53         O  0.03626301  0.03390637  0.02784089    -1.30900
O54         O  0.99251667  0.40157038  0.44638638    -0.86700
O55         O  0.00266282  0.09210137  0.43760182    -0.88200
O56         O  0.40096613  0.44821424  0.50487170    -0.86800
O57         O  0.09171703  0.44019780  0.49748789    -0.86800
O58         O  0.09599714  0.05225734  0.49045210    -0.86500
O59         O  0.40499357  0.05748339  0.50257511    -0.86400
O60         O  0.43918796  0.49985776  0.40514741    -0.86700
O61         O  0.04876162  0.49007627  0.39893735    -0.86200
O62         O  0.40034251  0.50261336  0.44841112    -0.87200
O63         O  0.09214100  0.49264633  0.43666944    -0.86400
O64         O  0.44122439  0.40733417  0.50688445    -0.86800
O65         O  0.44680926  0.09698682  0.49942901    -0.86500
O66         O  0.05608954  0.09407440  0.49449960    -0.86200
O67         O  0.04941732  0.40094083  0.50046916    -0.86600
O68         O  0.99161785  0.44098837  0.40396414    -0.86900
O69         O  0.00004925  0.04927009  0.39849356    -0.88200
Zr70       Zr  0.99675206  0.43199718  0.50035340     2.83100
Zr71       Zr  0.00107683  0.06746487  0.49422629     2.83500
Zr72       Zr  0.43107439  0.50189726  0.50172705     2.84100
Zr73       Zr  0.06758884  0.49720608  0.49328400     2.83400
Zr74       Zr  0.99553949  0.49658105  0.42959772     2.84200
O75         O  0.03266332  0.03097253  0.45963425    -1.08800
O76         O  0.46176696  0.46514329  0.46654965    -1.08300
C77         C  0.99149750  0.41036994  0.41492107     1.06400
C78         C  0.00233712  0.08058774  0.40701197     1.09000
C79         C  0.41025112  0.41703923  0.50740210     1.06500
C80         C  0.08060874  0.40962670  0.49972268     1.06900
C81         C  0.08687566  0.08365515  0.49274927     1.06500
C82         C  0.41559531  0.08817822  0.50229776     1.06000
C83         C  0.40872376  0.50190921  0.41679993     1.06500
C84         C  0.08035974  0.48977822  0.40643049     1.06000
H85         H  0.44990014  0.04787539  0.45003128     0.32700
O86         O  0.46403638  0.03355295  0.46382057    -1.29900
H87         H  0.04318834  0.44723806  0.44897731     0.32700
O88         O  0.03049639  0.46278880  0.46300310    -1.31300
N89         N  0.24707344  0.99922264  0.29905942    -0.36800
N90         N  0.19920070  0.99511125  0.24430645    -0.57400
N91         N  0.25273956  0.00643721  0.19644743    -0.36800
N92         N  0.30081914  0.01189454  0.25095292    -0.57400
C93         C  0.21753786  0.00129497  0.31625677     0.26800
C94         C  0.27177039  0.00897955  0.32029163     0.26800
C95         C  0.22552540  0.01279903  0.17716933     0.26800
C96         C  0.27975455  0.01893767  0.18004045     0.26800
C97         C  0.18009835  0.98307661  0.26983261     0.35400
C98         C  0.18339857  0.98712104  0.21530389     0.35400
C99         C  0.31946676  0.00738087  0.27907251     0.35400
C100        C  0.32225336  0.00909936  0.22434575     0.35400
C101        C  0.22351821  0.01266834  0.34879229    -0.22100
C102        C  0.25773723  0.01667794  0.35159133    -0.22100
C103        C  0.23533932  0.03033747  0.14844837    -0.22100
C104        C  0.26980397  0.03364671  0.14999299    -0.22100
C105        C  0.15197219  0.96708774  0.25703892    -0.23200
C106        C  0.15413008  0.96952868  0.22240123    -0.23200
C107        C  0.35305064  0.00282417  0.27017934    -0.23200
C108        C  0.35470605  0.00340434  0.23555539    -0.23200
C109        C  0.18592795  0.99006677  0.30433421    -0.18500
C110        C  0.30672908  0.00846561  0.31268052    -0.18500
C111        C  0.31329300  0.01408057  0.19020656    -0.18500
C112        C  0.19311398  0.99945478  0.18316701    -0.18500
H113        H  0.20530103  0.01640927  0.36892187     0.14400
H114        H  0.27062340  0.02396004  0.37439944     0.14400
H115        H  0.21956882  0.03846891  0.12778678     0.14400
H116        H  0.28578716  0.04502631  0.13098373     0.14400
H117        H  0.13159269  0.95576766  0.27121439     0.12700
H118        H  0.13569368  0.96050781  0.20457661     0.12700
H119        H  0.37429436  0.99940516  0.28677801     0.12700
H120        H  0.37735044  0.00068496  0.22041828     0.12700
H121        H  0.25070066  0.98768578  0.27571303     0.25900
H122        H  0.25372564  0.99008294  0.21693240     0.25900
N123        N  0.24983291  0.19805417  0.51162969    -0.36800
N124        N  0.19724120  0.24833247  0.50678054    -0.57400
N125        N  0.24675842  0.30115578  0.51219244    -0.36800
N126        N  0.29926722  0.25099326  0.51647277    -0.57400
C127        C  0.22395531  0.17937503  0.50008529     0.26800
C128        C  0.27856005  0.18078095  0.50486448     0.26800
C129        C  0.21979029  0.31823048  0.50030277     0.26800
C130        C  0.27448945  0.31933149  0.50458216     0.26800
C131        C  0.17851922  0.22057556  0.51236422     0.35400
C132        C  0.17684332  0.27513818  0.51241765     0.35400
C133        C  0.31812619  0.22403222  0.52528707     0.35400
C134        C  0.31591162  0.27870821  0.52682833     0.35400
C135        C  0.23634868  0.14971325  0.48596943    -0.22100
C136        C  0.27086838  0.15056398  0.48906233    -0.22100
C137        C  0.23032525  0.34766877  0.48485673    -0.22100
C138        C  0.26498084  0.34811196  0.48704032    -0.22100
C139        C  0.14607781  0.22980090  0.52189101    -0.23200
C140        C  0.14496817  0.26446030  0.52172213    -0.23200
C141        C  0.34685365  0.23447952  0.54182788    -0.23200
C142        C  0.34517615  0.26921559  0.54335958    -0.23200
C143        C  0.18946137  0.18740020  0.50476742    -0.18500
C144        C  0.31112622  0.19071342  0.51496591    -0.18500
C145        C  0.30740428  0.31179159  0.51621424    -0.18500
C146        C  0.18595167  0.30878071  0.50562081    -0.18500
H147        H  0.22197237  0.12929327  0.47519655     0.14400
H148        H  0.28825165  0.13093423  0.48109783     0.14400
H149        H  0.21465363  0.36689362  0.47348028     0.14400
H150        H  0.28117649  0.36792623  0.47776026     0.14400
H151        H  0.12511734  0.21329959  0.52721635     0.12700
H152        H  0.12303302  0.27998222  0.52694376     0.12700
H153        H  0.36717634  0.21877860  0.55103810     0.12700
H154        H  0.36422917  0.28563921  0.55362799     0.12700
H155        H  0.24772256  0.21943292  0.52682518     0.25900
H156        H  0.24581788  0.28050010  0.52837646     0.25900
C157        C  0.39123860  0.35607501  0.50146217    -0.02100
C158        C  0.38390330  0.39007953  0.51096711     0.07600
C159        C  0.35114042  0.39720706  0.02418812    -0.02200
C160        C  0.32840060  0.37060422  0.03019454    -0.02200
C161        C  0.33400564  0.33864262  0.51521267     0.07700
C162        C  0.36510030  0.33260405  0.49879995    -0.02400
Br163      Br  0.37204879  0.29353884  0.47015540    -0.00900
Br164      Br  0.43645641  0.33834311  0.49476829    -0.01000
Br165      Br  0.29073207  0.37773442  0.06067575    -0.01000
Br166      Br  0.33553492  0.44249410  0.03418862    -0.00900
C167        C  0.34116901  0.13922085  0.03644846    -0.02100
C168        C  0.33913431  0.16555230  0.51280674     0.07600
C169        C  0.36233431  0.16663154  0.48573364    -0.02200
C170        C  0.38864874  0.14272269  0.48349007    -0.02200
C171        C  0.38969242  0.11521834  0.50610330     0.07700
C172        C  0.36514872  0.11327748  0.03214420    -0.02400
Br173      Br  0.36364703  0.07529688  0.06229472    -0.00900
Br174      Br  0.31103250  0.13886659  0.07490602    -0.01000
Br175      Br  0.42217266  0.14737905  0.44843064    -0.01000
Br176      Br  0.35630606  0.19916846  0.45010953    -0.00900
C177        C  0.13703832  0.33591043  0.47583462    -0.02100
C178        C  0.15889398  0.33487729  0.50378861     0.07600
C179        C  0.15306611  0.35661896  0.03149849    -0.02200
C180        C  0.12611780  0.37975512  0.03080896    -0.02200
C181        C  0.10587392  0.38236911  0.50194147     0.07700
C182        C  0.11007155  0.35909755  0.47531578    -0.02400
Br183      Br  0.07775618  0.35770462  0.43924241    -0.00900
Br184      Br  0.14440826  0.30597784  0.43800849    -0.01000
Br185      Br  0.11362436  0.40444111  0.07097277    -0.01000
Br186      Br  0.18139194  0.35410324  0.07079500    -0.00900
C187        C  0.14076112  0.10577403  0.01763335    -0.02100
C188        C  0.11369951  0.10980232  0.49483292     0.07600
C189        C  0.11160364  0.14005169  0.47589019    -0.02200
C190        C  0.13834802  0.16316808  0.47631898    -0.02200
C191        C  0.16379193  0.16024118  0.50082109     0.07700
C192        C  0.16396373  0.13204594  0.02243802    -0.02400
Br193      Br  0.19430939  0.13052842  0.06038470    -0.00900
Br194      Br  0.14544722  0.06558955  0.04448040    -0.01000
Br195      Br  0.14051578  0.19830287  0.44258681    -0.01000
Br196      Br  0.07150035  0.15233500  0.45152204    -0.00900
C197        C  0.36055044  0.03228590  0.38892590    -0.02100
C198        C  0.38125615  0.50334114  0.39174027     0.07600
C199        C  0.37593136  0.47580130  0.36996008    -0.02200
C200        C  0.34926019  0.47646130  0.34687311    -0.02200
C201        C  0.33129381  0.00677698  0.34115825     0.07700
C202        C  0.33772718  0.03506654  0.36190451    -0.02400
Br203      Br  0.31658807  0.07796623  0.35270196    -0.00900
Br204      Br  0.36281991  0.06777648  0.42226408    -0.01000
Br205      Br  0.33705299  0.43566732  0.32331059    -0.01000
Br206      Br  0.40515118  0.43708743  0.37139863    -0.00900
C207        C  0.10173076  0.00568352  0.34852209    -0.02100
C208        C  0.10518817  0.48627709  0.37821929     0.07600
C209        C  0.13356552  0.46468387  0.38128498    -0.02200
C210        C  0.15849531  0.46391334  0.35573943    -0.02200
C211        C  0.15727523  0.98724470  0.32890662     0.07700
C212        C  0.12901616  0.00869507  0.32599397    -0.02400
Br213      Br  0.12897633  0.04494229  0.29357241    -0.00900
Br214      Br  0.05963946  0.02719647  0.33689109    -0.01000
Br215      Br  0.19443436  0.43094191  0.35741344    -0.01000
Br216      Br  0.13773871  0.43451823  0.41927856    -0.00900
C217        C  0.15110520  0.48510797  0.09785695    -0.02100
C218        C  0.11830086  0.99898116  0.10372494     0.07600
C219        C  0.11167794  0.01412397  0.13587097    -0.02200
C220        C  0.13767386  0.01782825  0.15938300    -0.02200
C221        C  0.16794637  0.99977256  0.15527069     0.07700
C222        C  0.17412517  0.48240544  0.12476700    -0.02400
Br223      Br  0.21357182  0.45380063  0.12016914    -0.00900
Br224      Br  0.16666502  0.47070969  0.05364854    -0.01000
Br225      Br  0.13229391  0.04923770  0.19657174    -0.01000
Br226      Br  0.06746759  0.02936809  0.15045787    -0.00900
C227        C  0.36181726  0.04036461  0.15900764    -0.02100
C228        C  0.34016761  0.01278564  0.16384442     0.07600
C229        C  0.34587644  0.48262335  0.14585291    -0.02200
C230        C  0.37359560  0.47976773  0.12375976    -0.02200
C231        C  0.39429299  0.00778985  0.11750971     0.07700
C232        C  0.38927206  0.03762840  0.13641497    -0.02400
Br233      Br  0.42059346  0.07423518  0.13238656    -0.00900
Br234      Br  0.35292936  0.08212527  0.18257274    -0.01000
Br235      Br  0.38617043  0.43629807  0.10578907    -0.01000
Br236      Br  0.31560640  0.44509532  0.15119457    -0.00900
C237        C  0.47299490  0.11707113  0.36548045    -0.02100
C238        C  0.00336318  0.10550255  0.37948790     0.07600
C239        C  0.03424067  0.11805299  0.36728401    -0.02200
C240        C  0.03440902  0.14358936  0.34261888    -0.02200
C241        C  0.00377133  0.15701380  0.33071365     0.07700
C242        C  0.47304191  0.14351252  0.34199675    -0.02400
Br243      Br  0.43104271  0.16109456  0.32500736    -0.00900
Br244      Br  0.43157228  0.09500261  0.37662901    -0.01000
Br245      Br  0.07643815  0.16010592  0.32480407    -0.01000
Br246      Br  0.07617763  0.09918451  0.38293904    -0.00900
C247        C  0.46474440  0.36068838  0.38605276    -0.02100
C248        C  0.99175639  0.38344225  0.38893666     0.07600
C249        C  0.01908759  0.38108934  0.36604177    -0.02200
C250        C  0.02008937  0.35540866  0.34154184    -0.02200
C251        C  0.99293639  0.33294925  0.33851815     0.07700
C252        C  0.46521507  0.33567872  0.36072997    -0.02400
Br253      Br  0.42756074  0.30555950  0.35576475    -0.00900
Br254      Br  0.42581734  0.36517902  0.41478063    -0.01000
Br255      Br  0.05911098  0.35046359  0.31250243    -0.01000
Br256      Br  0.05534511  0.41309193  0.36778990    -0.00900
C257        C  0.02588299  0.39268373  0.14047786    -0.02100
C258        C  0.00165360  0.39212718  0.11445334     0.07600
C259        C  0.47737609  0.36616666  0.11407456    -0.02200
C260        C  0.47744072  0.34106072  0.13906715    -0.02200
C261        C  0.00241607  0.34091485  0.16410641     0.07700
C262        C  0.02668157  0.36673184  0.16473379    -0.02400
Br263      Br  0.06173928  0.36593299  0.19828036    -0.00900
Br264      Br  0.05886563  0.42814889  0.14279473    -0.01000
Br265      Br  0.44270558  0.30708647  0.13949234    -0.01000
Br266      Br  0.44263145  0.36538164  0.08042457    -0.00900
C267        C  0.48294076  0.14097945  0.10733478    -0.02100
C268        C  0.01040701  0.11879032  0.10233902     0.07600
C269        C  0.04032487  0.12393730  0.12048487    -0.02200
C270        C  0.04098529  0.14742230  0.14719038    -0.02200
C271        C  0.01220062  0.16712914  0.15452957     0.06900
C272        C  0.48357807  0.16466559  0.13381139    -0.02400
Br273      Br  0.44491854  0.19332277  0.14212906    -0.00900
Br274      Br  0.44516983  0.14031458  0.07694127    -0.01000
Br275      Br  0.08132267  0.15298783  0.17341242    -0.01000
Br276      Br  0.08147022  0.10273553  0.10530404    -0.00900
N277        N  0.00668061  0.25177189  0.69621341    -0.36800
N278        N  0.00818978  0.19723240  0.74494093    -0.57400
N279        N  0.99716166  0.24613953  0.79908297    -0.36800
N280        N  0.99834361  0.30065018  0.74996439    -0.57400
C281        C  0.01664898  0.22587498  0.67618856     0.26800
C282        C  0.01276540  0.28063645  0.67913908     0.26800
C283        C  0.00453512  0.21830206  0.81734089     0.26800
C284        C  0.00010022  0.27308812  0.81988302     0.26800
C285        C  0.00663934  0.17867110  0.71630898     0.35400
C286        C  0.00298467  0.17570454  0.77082413     0.35400
C287        C  0.99327899  0.32115268  0.72327554     0.35400
C288        C  0.98872812  0.31818209  0.77767989     0.35400
C289        C  0.02907329  0.23834534  0.64591972    -0.22100
C290        C  0.02681906  0.27293788  0.64785549    -0.22100
C291        C  0.01133226  0.22758423  0.85039691    -0.22100
C292        C  0.00880330  0.26216987  0.85193424    -0.22100
C293        C  0.00102145  0.14509766  0.72406560    -0.23200
C294        C  0.99891357  0.14318158  0.75863216    -0.23200
C295        C  0.98030975  0.35190695  0.73405977    -0.23200
C296        C  0.97755726  0.35007218  0.76860458    -0.23200
C297        C  0.01206952  0.19129530  0.68336081    -0.18500
C298        C  0.00296762  0.31342317  0.68973010    -0.18500
C299        C  0.99332594  0.30707418  0.81120817    -0.18500
C300        C  0.00370605  0.18463407  0.80540420    -0.18500
H301        H  0.03824282  0.22397226  0.62443656     0.14400
H302        H  0.03380148  0.29038980  0.62807044     0.14400
H303        H  0.01749622  0.21116543  0.87128686     0.14400
H304        H  0.01252732  0.27748143  0.87425485     0.14400
H305        H  0.99910378  0.12409995  0.70667890     0.12700
H306        H  0.99495508  0.12041781  0.77311701     0.12700
H307        H  0.97428239  0.37366267  0.71874218     0.12700
H308        H  0.96900158  0.37013316  0.78521495     0.12700
H309        H  0.99227143  0.24959541  0.71804715     0.25900
H310        H  0.98730266  0.24638072  0.77488771     0.25900
O311        O  0.00517775  0.09886741  0.54654938    -0.86700
O312        O  0.00046174  0.40706291  0.55654196    -0.86900
O313        O  0.45090645  0.00686892  0.59781537    -0.88500
O314        O  0.06040291  0.99811672  0.58793334    -0.87300
O315        O  0.09965649  0.49826810  0.54579872    -0.86900
O316        O  0.40785775  0.50426486  0.55937136    -0.88300
O317        O  0.00269189  0.44936294  0.59611869    -0.86700
O318        O  0.00837559  0.06017146  0.58956839    -0.86300
Zr319      Zr  0.00336214  0.50291010  0.56559816     2.84300
O320        O  0.03388419  0.46620778  0.53054407    -1.08300
O321        O  0.46809952  0.03625167  0.53199634    -1.09000
C322        C  0.00793742  0.09071650  0.57787915     1.06400
C323        C  0.00179901  0.41795589  0.58730808     1.06300
C324        C  0.41946189  0.00632767  0.58977341     1.09300
C325        C  0.09118749  0.99817769  0.57731763     1.07100
H326        H  0.45260087  0.45564951  0.55103360     0.32700
O327        O  0.46609956  0.46857851  0.53541556    -1.29300
H328        H  0.05142802  0.04782550  0.54061513     0.32300
O329        O  0.03626294  0.03390630  0.52784080    -1.30900
O330        O  0.99251670  0.40157040  0.94638632    -0.86700
O331        O  0.00266284  0.09210134  0.93760180    -0.88200
O332        O  0.40096606  0.44821424  0.00487177    -0.86800
O333        O  0.09171705  0.44019777  0.99748801    -0.86800
O334        O  0.09599703  0.05225737  0.99045206    -0.86500
O335        O  0.40499342  0.05748340  0.00257494    -0.86400
O336        O  0.43918799  0.49985777  0.90514743    -0.86700
O337        O  0.04876169  0.49007622  0.89893742    -0.86200
O338        O  0.40034255  0.50261335  0.94841116    -0.87200
O339        O  0.09214105  0.49264646  0.93666951    -0.86400
O340        O  0.44122437  0.40733422  0.00688450    -0.86800
O341        O  0.44680917  0.09698679  0.99942911    -0.86500
O342        O  0.05608945  0.09407446  0.99449955    -0.86200
O343        O  0.04941734  0.40094083  0.00046918    -0.86600
O344        O  0.99161788  0.44098840  0.90396409    -0.86900
O345        O  0.00004928  0.04927005  0.89849353    -0.88200
Zr346      Zr  0.99675206  0.43199716  0.00035336     2.83100
Zr347      Zr  0.00107683  0.06746486  0.99422629     2.83500
Zr348      Zr  0.43107436  0.50189723  0.00172709     2.84100
Zr349      Zr  0.06758880  0.49720600  0.99328400     2.83400
Zr350      Zr  0.99553950  0.49658104  0.92959772     2.84200
O351        O  0.03266331  0.03097246  0.95963430    -1.08800
O352        O  0.46176696  0.46514333  0.96654968    -1.08300
C353        C  0.99149751  0.41036995  0.91492101     1.06400
C354        C  0.00233710  0.08058770  0.90701195     1.09000
C355        C  0.41025108  0.41703924  0.00740217     1.06500
C356        C  0.08060876  0.40962669  0.99972277     1.06900
C357        C  0.08687555  0.08365519  0.99274924     1.06500
C358        C  0.41559520  0.08817822  0.00229773     1.06000
C359        C  0.40872379  0.50190920  0.91679996     1.06500
C360        C  0.08035981  0.48977830  0.90643056     1.06000
H361        H  0.44990011  0.04787544  0.95003116     0.32700
O362        O  0.46403639  0.03355292  0.96382054    -1.29900
H363        H  0.04318839  0.44723800  0.94897724     0.32700
O364        O  0.03049641  0.46278873  0.96300302    -1.31300
N365        N  0.24707347  0.99922277  0.79905941    -0.36800
N366        N  0.19920069  0.99511136  0.74430640    -0.57400
N367        N  0.25273954  0.00643742  0.69644739    -0.36800
N368        N  0.30081917  0.01189473  0.75095292    -0.57400
C369        C  0.21753788  0.00129511  0.81625679     0.26800
C370        C  0.27177046  0.00897956  0.82029169     0.26800
C371        C  0.22552539  0.01279923  0.67716927     0.26800
C372        C  0.27975455  0.01893787  0.68004042     0.26800
C373        C  0.18009837  0.98307672  0.76983257     0.35400
C374        C  0.18339856  0.98712119  0.71530382     0.35400
C375        C  0.31946681  0.00738098  0.77907250     0.35400
C376        C  0.32225338  0.00909956  0.72434573     0.35400
C377        C  0.22351828  0.01266835  0.84879235    -0.22100
C378        C  0.25773731  0.01667789  0.85159142    -0.22100
C379        C  0.23533937  0.03033767  0.64844832    -0.22100
C380        C  0.26980401  0.03364690  0.64999295    -0.22100
C381        C  0.15197223  0.96708782  0.75703884    -0.23200
C382        C  0.15413006  0.96952882  0.72240113    -0.23200
C383        C  0.35305068  0.00282424  0.77017930    -0.23200
C384        C  0.35470607  0.00340451  0.73555534    -0.23200
C385        C  0.18592796  0.99006692  0.80433420    -0.18500
C386        C  0.30672916  0.00846568  0.81268051    -0.18500
C387        C  0.31329300  0.01408076  0.69020656    -0.18500
C388        C  0.19311397  0.99945498  0.68316694    -0.18500
H389        H  0.20530109  0.01640930  0.86892193     0.14400
H390        H  0.27062349  0.02396000  0.87439954     0.14400
H391        H  0.21956891  0.03846915  0.62778672     0.14400
H392        H  0.28578722  0.04502650  0.63098371     0.14400
H393        H  0.13159273  0.95576770  0.77121431     0.12700
H394        H  0.13569363  0.96050804  0.70457651     0.12700
H395        H  0.37429440  0.99940512  0.78677795     0.12700
H396        H  0.37735047  0.00068518  0.72041822     0.12700
H397        H  0.25070065  0.98768606  0.77571301     0.25900
H398        H  0.25372561  0.99008318  0.71693237     0.25900
N399        N  0.24983283  0.19805417  0.01162974    -0.36800
N400        N  0.19724116  0.24833248  0.00678061    -0.57400
N401        N  0.24675837  0.30115579  0.01219246    -0.36800
N402        N  0.29926713  0.25099323  0.01647290    -0.57400
C403        C  0.22395519  0.17937504  0.00008539     0.26800
C404        C  0.27855995  0.18078094  0.00486451     0.26800
C405        C  0.21979028  0.31823046  0.00030270     0.26800
C406        C  0.27448942  0.31933145  0.00458220     0.26800
C407        C  0.17851913  0.22057559  0.01236425     0.35400
C408        C  0.17684330  0.27513820  0.01241768     0.35400
C409        C  0.31812605  0.22403218  0.02528725     0.35400
C410        C  0.31591155  0.27870817  0.02682841     0.35400
C411        C  0.23634853  0.14971324  0.98596953    -0.22100
C412        C  0.27086825  0.15056397  0.98906234    -0.22100
C413        C  0.23032528  0.34766872  0.98485663    -0.22100
C414        C  0.26498087  0.34811189  0.98704027    -0.22100
C415        C  0.14607771  0.22980093  0.02189097    -0.23200
C416        C  0.14496813  0.26446035  0.02172215    -0.23200
C417        C  0.34685351  0.23447947  0.04182800    -0.23200
C418        C  0.34517604  0.26921553  0.04335965    -0.23200
C419        C  0.18946125  0.18740023  0.00476748    -0.18500
C420        C  0.31112610  0.19071340  0.01496604    -0.18500
C421        C  0.30740423  0.31179155  0.01621433    -0.18500
C422        C  0.18595167  0.30878072  0.00562075    -0.18500
H423        H  0.22197217  0.12929327  0.97519669     0.14400
H424        H  0.28825149  0.13093423  0.98109775     0.14400
H425        H  0.21465370  0.36689358  0.97348016     0.14400
H426        H  0.28117657  0.36792612  0.97776022     0.14400
H427        H  0.12511725  0.21329959  0.02721621     0.12700
H428        H  0.12303300  0.27998230  0.02694380     0.12700
H429        H  0.36717624  0.21877856  0.05103815     0.12700
H430        H  0.36422910  0.28563913  0.05362805     0.12700
H431        H  0.24772253  0.21943291  0.02682524     0.25900
H432        H  0.24581776  0.28050017  0.02837656     0.25900
C433        C  0.39123859  0.35607500  0.00146231    -0.02100
C434        C  0.38390327  0.39007951  0.01096719     0.07600
C435        C  0.35114045  0.39720710  0.52418805    -0.02200
C436        C  0.32840066  0.37060425  0.53019448    -0.02200
C437        C  0.33400560  0.33864259  0.01521277     0.07700
C438        C  0.36510030  0.33260402  0.99880015    -0.02400
Br439      Br  0.37204886  0.29353874  0.97015577    -0.00900
Br440      Br  0.43645645  0.33834325  0.99476844    -0.01000
Br441      Br  0.29073212  0.37773439  0.56067569    -0.01000
Br442      Br  0.33553496  0.44249421  0.53418855    -0.00900
C443        C  0.34116911  0.13922087  0.53644838    -0.02100
C444        C  0.33913420  0.16555229  0.01280684     0.07600
C445        C  0.36233419  0.16663156  0.98573376    -0.02200
C446        C  0.38864864  0.14272274  0.98349016    -0.02200
C447        C  0.38969233  0.11521837  0.00610334     0.07700
C448        C  0.36514879  0.11327746  0.53214413    -0.02400
Br449      Br  0.36364705  0.07529685  0.56229465    -0.00900
Br450      Br  0.31103255  0.13886656  0.57490592    -0.01000
Br451      Br  0.42217244  0.14737901  0.94843059    -0.01000
Br452      Br  0.35630585  0.19916845  0.95010968    -0.00900
C453        C  0.13703831  0.33591044  0.97583461    -0.02100
C454        C  0.15889402  0.33487731  0.00378858     0.07600
C455        C  0.15306603  0.35661896  0.53149850    -0.02200
C456        C  0.12611773  0.37975517  0.53080894    -0.02200
C457        C  0.10587390  0.38236907  0.00194153     0.07700
C458        C  0.11007149  0.35909752  0.97531582    -0.02400
Br459      Br  0.07775605  0.35770458  0.93924243    -0.00900
Br460      Br  0.14440831  0.30597802  0.93800841    -0.01000
Br461      Br  0.11362419  0.40444126  0.57097267    -0.01000
Br462      Br  0.18139193  0.35410324  0.57079494    -0.00900
C463        C  0.14076131  0.10577398  0.51763322    -0.02100
C464        C  0.11369938  0.10980235  0.99483298     0.07600
C465        C  0.11160347  0.14005173  0.97589028    -0.02200
C466        C  0.13834784  0.16316813  0.97631908    -0.02200
C467        C  0.16379176  0.16024122  0.00082118     0.07700
C468        C  0.16396393  0.13204588  0.52243789    -0.02400
Br469      Br  0.19430949  0.13052839  0.56038466    -0.00900
Br470      Br  0.14544728  0.06558964  0.54448040    -0.01000
Br471      Br  0.14051558  0.19830290  0.94258691    -0.01000
Br472      Br  0.07150013  0.15233501  0.95152218    -0.00900
C473        C  0.36055049  0.03228588  0.88892588    -0.02100
C474        C  0.38125616  0.50334114  0.89174031     0.07600
C475        C  0.37593140  0.47580134  0.86996006    -0.02200
C476        C  0.34926024  0.47646133  0.84687308    -0.02200
C477        C  0.33129395  0.00677706  0.84115819     0.07700
C478        C  0.33772731  0.03506658  0.86190446    -0.02400
Br479      Br  0.31658809  0.07796622  0.85270209    -0.00900
Br480      Br  0.36281975  0.06777645  0.92226407    -0.01000
Br481      Br  0.33705304  0.43566731  0.82331052    -0.01000
Br482      Br  0.40515127  0.43708755  0.87139856    -0.00900
C483        C  0.10173080  0.00568369  0.84852215    -0.02100
C484        C  0.10518824  0.48627718  0.87821935     0.07600
C485        C  0.13356559  0.46468393  0.88128504    -0.02200
C486        C  0.15849533  0.46391331  0.85573943    -0.02200
C487        C  0.15727524  0.98724484  0.82890663     0.07700
C488        C  0.12901619  0.00869524  0.82599401    -0.02400
Br489      Br  0.12897638  0.04494244  0.79357238    -0.00900
Br490      Br  0.05963952  0.02719665  0.83689108    -0.01000
Br491      Br  0.19443437  0.43094187  0.85741338    -0.01000
Br492      Br  0.13773875  0.43451825  0.91927866    -0.00900
C493        C  0.15110522  0.48510796  0.59785690    -0.02100
C494        C  0.11830081  0.99898127  0.60372490     0.07600
C495        C  0.11167787  0.01412410  0.63587090    -0.02200
C496        C  0.13767382  0.01782843  0.65938289    -0.02200
C497        C  0.16794635  0.99977277  0.65527059     0.07700
C498        C  0.17412516  0.48240544  0.62476697    -0.02400
Br499      Br  0.21357189  0.45380079  0.62016906    -0.00900
Br500      Br  0.16666505  0.47070966  0.55364847    -0.01000
Br501      Br  0.13229372  0.04923770  0.69657172    -0.01000
Br502      Br  0.06746744  0.02936805  0.65045783    -0.00900
C503        C  0.36181734  0.04036477  0.65900776    -0.02100
C504        C  0.34016762  0.01278582  0.66384443     0.07600
C505        C  0.34587644  0.48262349  0.64585285    -0.02200
C506        C  0.37359562  0.47976790  0.62375973    -0.02200
C507        C  0.39429306  0.00779002  0.61750978     0.07700
C508        C  0.38927217  0.03762853  0.63641510    -0.02400
Br509      Br  0.42059349  0.07423538  0.63238651    -0.00900
Br510      Br  0.35292942  0.08212544  0.68257289    -0.01000
Br511      Br  0.38617047  0.43629826  0.60578900    -0.01000
Br512      Br  0.31560642  0.44509548  0.65119450    -0.00900
C513        C  0.47299484  0.11707106  0.86548041    -0.02100
C514        C  0.00336311  0.10550253  0.87948792     0.07600
C515        C  0.03424061  0.11805305  0.86728411    -0.02200
C516        C  0.03440895  0.14358948  0.84261902    -0.02200
C517        C  0.00377128  0.15701382  0.83071370     0.07700
C518        C  0.47304184  0.14351244  0.84199671    -0.02400
Br519      Br  0.43104269  0.16109451  0.82500727    -0.00900
Br520      Br  0.43157226  0.09500253  0.87662895    -0.01000
Br521      Br  0.07643802  0.16010612  0.82480426    -0.01000
Br522      Br  0.07617763  0.09918470  0.88293921    -0.00900
C523        C  0.46474440  0.36068840  0.88605275    -0.02100
C524        C  0.99175635  0.38344225  0.88893663     0.07600
C525        C  0.01908758  0.38108931  0.86604179    -0.02200
C526        C  0.02008933  0.35540862  0.84154188    -0.02200
C527        C  0.99293633  0.33294923  0.83851815     0.07700
C528        C  0.46521503  0.33567873  0.86072995    -0.02400
Br529      Br  0.42756076  0.30555944  0.85576491    -0.00900
Br530      Br  0.42581737  0.36517900  0.91478060    -0.01000
Br531      Br  0.05911102  0.35046352  0.81250259    -0.01000
Br532      Br  0.05534516  0.41309185  0.86779005    -0.00900
C533        C  0.02588299  0.39268363  0.64047785    -0.02100
C534        C  0.00165367  0.39212712  0.61445330     0.07600
C535        C  0.47737610  0.36616661  0.61407449    -0.02200
C536        C  0.47744063  0.34106071  0.63906710    -0.02200
C537        C  0.00241592  0.34091483  0.66410641     0.07700
C538        C  0.02668139  0.36673182  0.66473386    -0.02400
Br539      Br  0.06173890  0.36593297  0.69828060    -0.00900
Br540      Br  0.05886572  0.42814864  0.64279467    -0.01000
Br541      Br  0.44270560  0.30708639  0.63949204    -0.01000
Br542      Br  0.44263150  0.36538161  0.58042448    -0.00900
C543        C  0.48294070  0.14097956  0.60733473    -0.02100
C544        C  0.01040698  0.11879032  0.60233897     0.07600
C545        C  0.04032483  0.12393728  0.62048481    -0.02200
C546        C  0.04098525  0.14742230  0.64719029    -0.02200
C547        C  0.01220061  0.16712915  0.65452950     0.06900
C548        C  0.48357795  0.16466565  0.63381139    -0.02400
Br549      Br  0.44491840  0.19332293  0.64212900    -0.00900
Br550      Br  0.44516985  0.14031477  0.57694118    -0.01000
Br551      Br  0.08132255  0.15298778  0.67341238    -0.01000
Br552      Br  0.08147009  0.10273547  0.60530396    -0.00900
N553        N  0.00656153  0.75172765  0.19620452    -0.36800
N554        N  0.00813565  0.69720143  0.24497871    -0.57400
N555        N  0.99723894  0.74614863  0.29910342    -0.36800
N556        N  0.99839244  0.80065337  0.24994660    -0.57400
C557        C  0.01648028  0.72581440  0.17617581     0.26800
C558        C  0.01259579  0.78057772  0.17908490     0.26800
C559        C  0.00451479  0.71829917  0.31738550     0.26800
C560        C  0.00017437  0.77310063  0.31990058     0.26800
C561        C  0.00659859  0.67862162  0.21635787     0.35400
C562        C  0.00298046  0.67567776  0.27087660     0.35400
C563        C  0.99329128  0.82114832  0.22325542     0.35400
C564        C  0.98887672  0.81821829  0.27767730     0.35400
C565        C  0.02881000  0.73826051  0.14585782    -0.22100
C566        C  0.02655564  0.77285130  0.14776691    -0.22100
C567        C  0.01125828  0.72758154  0.35045343    -0.22100
C568        C  0.00878991  0.76217406  0.35197420    -0.22100
C569        C  0.00105104  0.64504098  0.22413761    -0.23200
C570        C  0.99896877  0.64313957  0.25870399    -0.23200
C571        C  0.98041019  0.85193296  0.23405556    -0.23200
C572        C  0.97774884  0.85012601  0.26860790    -0.23200
C573        C  0.01196139  0.69123494  0.18339341    -0.18500
C574        C  0.00286212  0.81338229  0.18968159    -0.18500
C575        C  0.99344822  0.80709668  0.31121021    -0.18500
C576        C  0.00365950  0.68462405  0.30545495    -0.18500
H577        H  0.03792267  0.72387204  0.12436107     0.14400
H578        H  0.03348467  0.79028368  0.12794594     0.14400
H579        H  0.01734170  0.71115806  0.37136368     0.14400
H580        H  0.01248402  0.77748445  0.37430119     0.14400
H581        H  0.99915276  0.62402946  0.20676541     0.12700
H582        H  0.99505570  0.62037539  0.27320089     0.12700
H583        H  0.97437192  0.87368687  0.21873970     0.12700
H584        H  0.96925752  0.87020979  0.28522305     0.12700
H585        H  0.99222784  0.74957027  0.21808845     0.25900
H586        H  0.98743414  0.74640196  0.27488909     0.25900
O587        O  0.00520783  0.59880363  0.04663076    -0.86700
O588        O  0.00046678  0.90703861  0.05647615    -0.86900
O589        O  0.45090610  0.50683889  0.09783990    -0.88500
O590        O  0.06039227  0.49807628  0.08795441    -0.87300
O591        O  0.09965756  0.99830556  0.04576324    -0.86900
O592        O  0.40788088  0.00429759  0.05931741    -0.88300
O593        O  0.00266908  0.94933490  0.09606160    -0.86700
O594        O  0.00840489  0.56009192  0.08963502    -0.86300
Zr595      Zr  0.00337088  0.00293060  0.06558104     2.84300
O596        O  0.03390474  0.96621157  0.03053423    -1.08300
O597        O  0.46808298  0.53624828  0.03203926    -1.09000
C598        C  0.00797512  0.59063379  0.07795500     1.06400
C599        C  0.00177706  0.91792509  0.08724339     1.06300
C600        C  0.41945742  0.50629127  0.08981967     1.09300
C601        C  0.09118147  0.49812281  0.07735393     1.07100
H602        H  0.45262463  0.95567016  0.05097829     0.32700
O603        O  0.46612621  0.96859502  0.03537243    -1.29300
H604        H  0.05141740  0.54781335  0.04065260     0.32300
O605        O  0.03625101  0.53390610  0.02787539    -1.30900
O606        O  0.99244669  0.90161137  0.44634904    -0.86700
O607        O  0.00262852  0.59209362  0.43764652    -0.88200
O608        O  0.40101847  0.94819874  0.50473670    -0.86800
O609        O  0.09173230  0.94017089  0.49741791    -0.86800
O610        O  0.09601319  0.55224282  0.49050053    -0.86500
O611        O  0.40496328  0.55748234  0.50269822    -0.86400
O612        O  0.43919028  0.99985300  0.40509751    -0.86700
O613        O  0.04881635  0.99006272  0.39894550    -0.86200
O614        O  0.40034900  0.00262274  0.44836356    -0.87200
O615        O  0.09220542  0.99258112  0.43667219    -0.86400
O616        O  0.44127436  0.90731938  0.50683779    -0.86800
O617        O  0.44678177  0.59698452  0.49951707    -0.86500
O618        O  0.05610745  0.59405647  0.49457430    -0.86200
O619        O  0.04944066  0.90090408  0.50033773    -0.86600
O620        O  0.99155880  0.94102310  0.40391896    -0.86900
O621        O  0.00001022  0.54925436  0.39854462    -0.88200
Zr622      Zr  0.99678679  0.93200661  0.50031219     2.83100
Zr623      Zr  0.00106447  0.56746895  0.49427552     2.83500
Zr624      Zr  0.43110106  0.00190410  0.50166920     2.84100
Zr625      Zr  0.06760511  0.99719359  0.49325329     2.83400
Zr626      Zr  0.99555988  0.99659728  0.42955129     2.84200
O627        O  0.03263549  0.53097637  0.45966978    -1.08800
O628        O  0.46180898  0.96515783  0.46651197    -1.08300
C629        C  0.99141479  0.91040962  0.41488636     1.06400
C630        C  0.00229175  0.58057313  0.40705963     1.09000
C631        C  0.41030224  0.91702549  0.50729801     1.06500
C632        C  0.08063406  0.90959129  0.49961027     1.06900
C633        C  0.08689791  0.58363873  0.49282297     1.06500
C634        C  0.41556801  0.58817698  0.50242412     1.06000
C635        C  0.40872313  0.00191465  0.41674981     1.06500
C636        C  0.08041641  0.98973275  0.40643540     1.06000
H637        H  0.44992618  0.54781975  0.45013486     0.32700
O638        O  0.46402956  0.53353327  0.46388636    -1.29900
H639        H  0.04323322  0.94719736  0.44889712     0.32700
O640        O  0.03052212  0.96278560  0.46294987    -1.31300
N641        N  0.24709182  0.49923520  0.29913759    -0.36800
N642        N  0.19921505  0.49519219  0.24438161    -0.57400
N643        N  0.25275064  0.50650952  0.19651263    -0.36800
N644        N  0.30083543  0.51193020  0.25101094    -0.57400
C645        C  0.21756670  0.50128688  0.31635387     0.26800
C646        C  0.27180742  0.50891710  0.32037741     0.26800
C647        C  0.22553195  0.51286841  0.17723895     0.26800
C648        C  0.27976241  0.51901205  0.18010118     0.26800
C649        C  0.18013014  0.48312605  0.26990664     0.35400
C650        C  0.18343046  0.48716521  0.21537814     0.35400
C651        C  0.31948675  0.50737922  0.27912267     0.35400
C652        C  0.32226769  0.50916258  0.22439736     0.35400
C653        C  0.22357339  0.51256774  0.34891794    -0.22100
C654        C  0.25779866  0.51654274  0.35170776    -0.22100
C655        C  0.23534055  0.53040712  0.14851676    -0.22100
C656        C  0.26980623  0.53371555  0.15005360    -0.22100
C657        C  0.15203406  0.46708719  0.25711335    -0.23200
C658        C  0.15419376  0.46952146  0.22247693    -0.23200
C659        C  0.35306961  0.50283769  0.27021899    -0.23200
C660        C  0.35472060  0.50345317  0.23559745    -0.23200
C661        C  0.18594572  0.49011251  0.30440997    -0.18500
C662        C  0.30675964  0.50840434  0.31273654    -0.18500
C663        C  0.31330348  0.51415754  0.19025964    -0.18500
C664        C  0.19312682  0.49950527  0.18323604    -0.18500
H665        H  0.20537157  0.51626694  0.36906910     0.14400
H666        H  0.27070493  0.52375808  0.37452645     0.14400
H667        H  0.21956656  0.53853192  0.12785559     0.14400
H668        H  0.28578705  0.54508890  0.13103846     0.14400
H669        H  0.13167654  0.45572830  0.27128903     0.12700
H670        H  0.13577710  0.46046015  0.20465291     0.12700
H671        H  0.37431645  0.49939616  0.28680879     0.12700
H672        H  0.37736275  0.50073942  0.22045649     0.12700
H673        H  0.25070095  0.48776108  0.27575919     0.25900
H674        H  0.25374083  0.49015054  0.21699357     0.25900
N675        N  0.24988784  0.69805539  0.51199738    -0.36800
N676        N  0.19730914  0.74831512  0.50702246    -0.57400
N677        N  0.24682335  0.80115942  0.51230941    -0.36800
N678        N  0.29931137  0.75102351  0.51676428    -0.57400
C679        C  0.22403335  0.67936685  0.50040688     0.26800
C680        C  0.27863155  0.68079905  0.50526329     0.26800
C681        C  0.21984539  0.81820500  0.50040855     0.26800
C682        C  0.27454774  0.81931505  0.50463076     0.26800
C683        C  0.17859028  0.72055879  0.51263688     0.35400
C684        C  0.17692005  0.77512892  0.51266359     0.35400
C685        C  0.31817762  0.72409160  0.52563973     0.35400
C686        C  0.31597559  0.77876796  0.52700044     0.35400
C687        C  0.23646271  0.64971875  0.48629394    -0.22100
C688        C  0.27097610  0.65058369  0.48944079    -0.22100
C689        C  0.23036711  0.84760269  0.48487184    -0.22100
C690        C  0.26502645  0.84805261  0.48702456    -0.22100
C691        C  0.14616014  0.72979297  0.52219082    -0.23200
C692        C  0.14505419  0.76445524  0.52200601    -0.23200
C693        C  0.34692809  0.73458826  0.54211052    -0.23200
C694        C  0.34525998  0.76932902  0.54352660    -0.23200
C695        C  0.18952623  0.68737786  0.50503761    -0.18500
C696        C  0.31118594  0.69075640  0.51537622    -0.18500
C697        C  0.30746492  0.81180932  0.51627302    -0.18500
C698        C  0.18601582  0.80876824  0.50580833    -0.18500
H699        H  0.22211428  0.62929797  0.47548574     0.14400
H700        H  0.28838046  0.63096963  0.48148372     0.14400
H701        H  0.21468510  0.86680106  0.47346532     0.14400
H702        H  0.28121552  0.86784778  0.47769024     0.14400
H703        H  0.12520374  0.71329469  0.52754170     0.12700
H704        H  0.12312419  0.77998208  0.52723418     0.12700
H705        H  0.36726753  0.71891594  0.55133181     0.12700
H706        H  0.36433329  0.78578432  0.55370670     0.12700
H707        H  0.24775441  0.71943694  0.52718763     0.25900
H708        H  0.24589034  0.78054932  0.52855187     0.25900
C709        C  0.39127396  0.85606427  0.50134100    -0.02100
C710        C  0.38395152  0.89007292  0.51085211     0.07600
C711        C  0.35120333  0.89721496  0.02410215    -0.02200
C712        C  0.32846823  0.87062275  0.03014974    -0.02200
C713        C  0.33405915  0.83865267  0.51519140     0.07700
C714        C  0.36513047  0.83258895  0.49874406    -0.02400
Br715      Br  0.37202997  0.79345927  0.47017290    -0.00900
Br716      Br  0.43648378  0.83834292  0.49454068    -0.01000
Br717      Br  0.29082143  0.87777396  0.06065627    -0.01000
Br718      Br  0.33560996  0.94250841  0.03409650    -0.00900
C719        C  0.34131316  0.63930885  0.03683058    -0.02100
C720        C  0.33920797  0.66562196  0.51317743     0.07600
C721        C  0.36229161  0.66665343  0.48600530    -0.02200
C722        C  0.38857722  0.64272289  0.48368085    -0.02200
C723        C  0.38967489  0.61522191  0.50629361     0.07700
C724        C  0.36521749  0.61331305  0.03241923    -0.02400
Br725      Br  0.36370605  0.57529571  0.06251636    -0.00900
Br726      Br  0.31138342  0.63905755  0.07544895    -0.01000
Br727      Br  0.42198368  0.64734646  0.44851433    -0.01000
Br728      Br  0.35613356  0.69914778  0.45036267    -0.00900
C729        C  0.13711773  0.83580808  0.47593641    -0.02100
C730        C  0.15894825  0.83485260  0.50390855     0.07600
C731        C  0.15310356  0.85668166  0.03154614    -0.02200
C732        C  0.12614618  0.87980837  0.03077167    -0.02200
C733        C  0.10591879  0.88234200  0.50188410     0.07700
C734        C  0.11016312  0.85900938  0.47531450    -0.02400
Br735      Br  0.07796131  0.85757252  0.43914976    -0.00900
Br736      Br  0.14450587  0.80572354  0.43823327    -0.01000
Br737      Br  0.11362713  0.90462787  0.07084463    -0.01000
Br738      Br  0.18141879  0.85430237  0.07085653    -0.00900
C739        C  0.14082945  0.60568501  0.01769726    -0.02100
C740        C  0.11373745  0.60977852  0.49494117     0.07600
C741        C  0.11163196  0.64007684  0.47607718    -0.02200
C742        C  0.13837180  0.66320687  0.47656277    -0.02200
C743        C  0.16384923  0.66021391  0.50102887     0.07700
C744        C  0.16404858  0.63193877  0.02254636    -0.02400
Br745      Br  0.19444035  0.63028564  0.06044991    -0.00900
Br746      Br  0.14552247  0.56543970  0.04445698    -0.01000
Br747      Br  0.14049641  0.69844689  0.44293981    -0.01000
Br748      Br  0.07152726  0.65237445  0.45171004    -0.00900
C749        C  0.36054368  0.53223625  0.38897800    -0.02100
C750        C  0.38124079  0.00337005  0.39169190     0.07600
C751        C  0.37585346  0.97582253  0.36993541    -0.02200
C752        C  0.34916989  0.97650536  0.34686297    -0.02200
C753        C  0.33133756  0.50671419  0.34119503     0.07700
C754        C  0.33773957  0.53500523  0.36194654    -0.02400
Br755      Br  0.31660202  0.57790005  0.35272118    -0.00900
Br756      Br  0.36276858  0.56771702  0.42232942    -0.01000
Br757      Br  0.33684538  0.93570205  0.32338154    -0.01000
Br758      Br  0.40498515  0.93705257  0.37138361    -0.00900
C759        C  0.10168717  0.50568297  0.34849896    -0.02100
C760        C  0.10523052  0.98623384  0.37821294     0.07600
C761        C  0.13358801  0.96460895  0.38123789    -0.02200
C762        C  0.15851684  0.96386253  0.35568763    -0.02200
C763        C  0.15727508  0.48729506  0.32896003     0.07700
C764        C  0.12899745  0.50871699  0.32600343    -0.02400
Br765      Br  0.12894189  0.54493649  0.29355093    -0.00900
Br766      Br  0.05956536  0.52708092  0.33677181    -0.01000
Br767      Br  0.19451313  0.93095626  0.35738313    -0.01000
Br768      Br  0.13771932  0.93436481  0.41917564    -0.00900
C769        C  0.15110225  0.98516093  0.09779119    -0.02100
C770        C  0.11828881  0.49890257  0.10378357     0.07600
C771        C  0.11164240  0.51400445  0.13594738    -0.02200
C772        C  0.13762959  0.51774537  0.15946574    -0.02200
C773        C  0.16795375  0.49978266  0.15533324     0.07700
C774        C  0.17409309  0.98238088  0.12470996    -0.02400
Br775      Br  0.21346520  0.95367230  0.12011331    -0.00900
Br776      Br  0.16671261  0.97090624  0.05355474    -0.01000
Br777      Br  0.13214171  0.54905686  0.19672454    -0.01000
Br778      Br  0.06739871  0.52910501  0.15058150    -0.00900
C779        C  0.36190041  0.54037326  0.15909926    -0.02100
C780        C  0.34017203  0.51284607  0.16388749     0.07600
C781        C  0.34595613  0.98254312  0.14586966    -0.02200
C782        C  0.37364981  0.97974382  0.12373358    -0.02200
C783        C  0.39430992  0.50776762  0.11757398     0.07700
C784        C  0.38936005  0.53759402  0.13651627    -0.02400
Br785      Br  0.42077517  0.57412753  0.13253962    -0.00900
Br786      Br  0.35307814  0.58214657  0.18266330    -0.01000
Br787      Br  0.38627167  0.93631018  0.10570404    -0.01000
Br788      Br  0.31586542  0.94489684  0.15140755    -0.00900
C789        C  0.47293418  0.61704905  0.36553534    -0.02100
C790        C  0.00330525  0.60548177  0.37953359     0.07600
C791        C  0.03417909  0.61802204  0.36731845    -0.02200
C792        C  0.03434619  0.64355795  0.34265280    -0.02200
C793        C  0.00370994  0.65699887  0.33076584     0.07700
C794        C  0.47298058  0.64347478  0.34203014    -0.02400
Br795      Br  0.43098713  0.66096888  0.32494918    -0.00900
Br796      Br  0.43150945  0.59502312  0.37677052    -0.01000
Br797      Br  0.07636606  0.66002557  0.32477137    -0.01000
Br798      Br  0.07610535  0.59915184  0.38299303    -0.00900
C799        C  0.46468738  0.86074139  0.38597269    -0.02100
C800        C  0.99170033  0.88348163  0.38891477     0.07600
C801        C  0.01909708  0.88110128  0.36611012    -0.02200
C802        C  0.02015663  0.85541771  0.34161900    -0.02200
C803        C  0.99300391  0.83296660  0.33852750     0.07700
C804        C  0.46521822  0.83571970  0.36066155    -0.02400
Br805      Br  0.42756087  0.80562040  0.35561039    -0.00900
Br806      Br  0.42570733  0.86524625  0.41462734    -0.01000
Br807      Br  0.05924656  0.85047971  0.31267468    -0.01000
Br808      Br  0.05537076  0.91307466  0.36799050    -0.00900
C809        C  0.02583701  0.89261525  0.14040117    -0.02100
C810        C  0.00160931  0.89208114  0.11437744     0.07600
C811        C  0.47733281  0.86611677  0.11397582    -0.02200
C812        C  0.47736488  0.84101973  0.13898186    -0.02200
C813        C  0.00232102  0.84087186  0.16404538     0.07700
C814        C  0.02661477  0.86666458  0.16465816    -0.02400
Br815      Br  0.06171325  0.86581888  0.19816119    -0.00900
Br816      Br  0.05887234  0.92803311  0.14269338    -0.01000
Br817      Br  0.44262231  0.80705255  0.13937438    -0.01000
Br818      Br  0.44265061  0.86529527  0.08025834    -0.00900
C819        C  0.48294430  0.64086912  0.10736239    -0.02100
C820        C  0.01041807  0.61868363  0.10242424     0.07600
C821        C  0.04030139  0.62381124  0.12063070    -0.02200
C822        C  0.04091805  0.64730914  0.14732362    -0.02200
C823        C  0.01212897  0.66704161  0.15458616     0.06900
C824        C  0.48355002  0.66458852  0.13380374    -0.02400
Br825      Br  0.44491770  0.69333061  0.14194602    -0.00900
Br826      Br  0.44518270  0.64011577  0.07695609    -0.01000
Br827      Br  0.08121807  0.65288539  0.17360265    -0.01000
Br828      Br  0.08146641  0.60256307  0.10555606    -0.00900
N829        N  0.00656142  0.75172763  0.69620445    -0.36800
N830        N  0.00813569  0.69720143  0.74497877    -0.57400
N831        N  0.99723899  0.74614862  0.79910349    -0.36800
N832        N  0.99839249  0.80065336  0.74994664    -0.57400
C833        C  0.01648026  0.72581438  0.67617582     0.26800
C834        C  0.01259564  0.78057768  0.67908483     0.26800
C835        C  0.00451485  0.71829919  0.81738555     0.26800
C836        C  0.00017441  0.77310063  0.81990060     0.26800
C837        C  0.00659863  0.67862159  0.71635793     0.35400
C838        C  0.00298051  0.67567776  0.77087667     0.35400
C839        C  0.99329132  0.82114829  0.72325544     0.35400
C840        C  0.98887679  0.81821831  0.77767734     0.35400
C841        C  0.02880994  0.73826047  0.64585781    -0.22100
C842        C  0.02655544  0.77285124  0.64776684    -0.22100
C843        C  0.01125835  0.72758161  0.85045349    -0.22100
C844        C  0.00878999  0.76217411  0.85197423    -0.22100
C845        C  0.00105109  0.64504094  0.72413767    -0.23200
C846        C  0.99896883  0.64313955  0.75870405    -0.23200
C847        C  0.98041022  0.85193294  0.73405559    -0.23200
C848        C  0.97774890  0.85012604  0.76860796    -0.23200
C849        C  0.01196145  0.69123490  0.68339346    -0.18500
C850        C  0.00286212  0.81338228  0.68968157    -0.18500
C851        C  0.99344830  0.80709669  0.81121023    -0.18500
C852        C  0.00365958  0.68462407  0.80545503    -0.18500
H853        H  0.03792264  0.72387203  0.62436105     0.14400
H854        H  0.03348437  0.79028362  0.62794582     0.14400
H855        H  0.01734186  0.71115817  0.87136375     0.14400
H856        H  0.01248419  0.77748453  0.87430117     0.14400
H857        H  0.99915284  0.62402940  0.70676548     0.12700
H858        H  0.99505584  0.62037537  0.77320096     0.12700
H859        H  0.97437195  0.87368682  0.71873969     0.12700
H860        H  0.96925758  0.87020983  0.78522309     0.12700
H861        H  0.99222775  0.74957029  0.71808843     0.25900
H862        H  0.98743416  0.74640193  0.77488910     0.25900
O863        O  0.00520785  0.59880361  0.54663069    -0.86700
O864        O  0.00046683  0.90703866  0.55647610    -0.86900
O865        O  0.45090612  0.50683902  0.59783998    -0.88500
O866        O  0.06039227  0.49807622  0.58795448    -0.87300
O867        O  0.09965751  0.99830555  0.54576322    -0.86900
O868        O  0.40788091  0.00429774  0.55931744    -0.88300
O869        O  0.00266913  0.94933493  0.59606158    -0.86700
O870        O  0.00840493  0.56009194  0.58963500    -0.86300
Zr871      Zr  0.00337089  0.00293059  0.56558100     2.84300
O872        O  0.03390480  0.96621156  0.53053414    -1.08300
O873        O  0.46808302  0.53624832  0.53203922    -1.09000
C874        C  0.00797516  0.59063381  0.57795494     1.06400
C875        C  0.00177712  0.91792513  0.58724335     1.06300
C876        C  0.41945746  0.50629144  0.58981969     1.09300
C877        C  0.09118145  0.49812276  0.57735395     1.07100
H878        H  0.45262467  0.95567017  0.55097818     0.32700
O879        O  0.46612624  0.96859500  0.53537239    -1.29300
H880        H  0.05141745  0.54781356  0.54065275     0.32300
O881        O  0.03625105  0.53390620  0.52787545    -1.30900
O882        O  0.99244673  0.90161141  0.94634903    -0.86700
O883        O  0.00262837  0.59209355  0.93764655    -0.88200
O884        O  0.40101842  0.94819878  0.00473676    -0.86800
O885        O  0.09173233  0.94017092  0.99741787    -0.86800
O886        O  0.09601314  0.55224278  0.99050051    -0.86500
O887        O  0.40496322  0.55748227  0.00269828    -0.86400
O888        O  0.43919033  0.99985313  0.90509746    -0.86700
O889        O  0.04881637  0.99006268  0.89894554    -0.86200
O890        O  0.40034906  0.00262267  0.94836354    -0.87200
O891        O  0.09220542  0.99258109  0.93667225    -0.86400
O892        O  0.44127433  0.90731942  0.00683785    -0.86800
O893        O  0.44678171  0.59698446  0.99951719    -0.86500
O894        O  0.05610741  0.59405645  0.99457427    -0.86200
O895        O  0.04944067  0.90090414  0.00033780    -0.86600
O896        O  0.99155884  0.94102311  0.90391894    -0.86900
O897        O  0.00001030  0.54925432  0.89854460    -0.88200
Zr898      Zr  0.99678676  0.93200662  0.00031224     2.83100
Zr899      Zr  0.00106444  0.56746893  0.99427558     2.83500
Zr900      Zr  0.43110104  0.00190412  0.00166919     2.84100
Zr901      Zr  0.06760507  0.99719356  0.99325335     2.83400
Zr902      Zr  0.99555989  0.99659725  0.92955130     2.84200
O903        O  0.03263546  0.53097635  0.95966985    -1.08800
O904        O  0.46180902  0.96515785  0.96651204    -1.08300
C905        C  0.99141484  0.91040966  0.91488635     1.06400
C906        C  0.00229175  0.58057308  0.90705965     1.09000
C907        C  0.41030220  0.91702553  0.00729808     1.06500
C908        C  0.08063408  0.90959133  0.99961028     1.06900
C909        C  0.08689786  0.58363869  0.99282296     1.06500
C910        C  0.41556794  0.58817690  0.00242419     1.06000
C911        C  0.40872318  0.00191467  0.91674980     1.06500
C912        C  0.08041642  0.98973273  0.90643543     1.06000
H913        H  0.44992623  0.54781974  0.95013499     0.32700
O914        O  0.46402960  0.53353323  0.96388647    -1.29900
H915        H  0.04323332  0.94719724  0.94889706     0.32700
O916        O  0.03052212  0.96278554  0.96294987    -1.31300
N917        N  0.24709187  0.49923534  0.79913761    -0.36800
N918        N  0.19921512  0.49519217  0.74438159    -0.57400
N919        N  0.25275062  0.50650954  0.69651266    -0.36800
N920        N  0.30083547  0.51193033  0.75101092    -0.57400
C921        C  0.21756676  0.50128689  0.81635389     0.26800
C922        C  0.27180747  0.50891721  0.82037741     0.26800
C923        C  0.22553193  0.51286837  0.67723892     0.26800
C924        C  0.27976237  0.51901217  0.68010122     0.26800
C925        C  0.18013027  0.48312601  0.76990665     0.35400
C926        C  0.18343048  0.48716517  0.71537815     0.35400
C927        C  0.31948681  0.50737938  0.77912265     0.35400
C928        C  0.32226770  0.50916267  0.72439734     0.35400
C929        C  0.22357344  0.51256771  0.84891799    -0.22100
C930        C  0.25779871  0.51654276  0.85170779    -0.22100
C931        C  0.23534052  0.53040714  0.64851676    -0.22100
C932        C  0.26980619  0.53371572  0.65005368    -0.22100
C933        C  0.15203422  0.46708710  0.75711343    -0.23200
C934        C  0.15419380  0.46952139  0.72247702    -0.23200
C935        C  0.35306968  0.50283789  0.77021897    -0.23200
C936        C  0.35472062  0.50345332  0.73559742    -0.23200
C937        C  0.18594579  0.49011249  0.80440999    -0.18500
C938        C  0.30675969  0.50840442  0.81273653    -0.18500
C939        C  0.31330345  0.51415763  0.69025963    -0.18500
C940        C  0.19312680  0.49950523  0.68323603    -0.18500
H941        H  0.20537162  0.51626685  0.86906916     0.14400
H942        H  0.27070498  0.52375803  0.87452650     0.14400
H943        H  0.21956652  0.53853195  0.62785558     0.14400
H944        H  0.28578705  0.54508923  0.63103866     0.14400
H945        H  0.13167678  0.45572817  0.77128921     0.12700
H946        H  0.13577706  0.46046008  0.70465307     0.12700
H947        H  0.37431655  0.49939636  0.78680872     0.12700
H948        H  0.37736278  0.50073961  0.72045647     0.12700
H949        H  0.25070100  0.48776126  0.77575915     0.25900
H950        H  0.25374082  0.49015061  0.71699360     0.25900
N951        N  0.24988779  0.69805532  0.01199728    -0.36800
N952        N  0.19730914  0.74831512  0.00702248    -0.57400
N953        N  0.24682337  0.80115948  0.01230939    -0.36800
N954        N  0.29931127  0.75102347  0.01676423    -0.57400
C955        C  0.22403329  0.67936679  0.00040684     0.26800
C956        C  0.27863149  0.68079898  0.00526328     0.26800
C957        C  0.21984542  0.81820501  0.00040854     0.26800
C958        C  0.27454776  0.81931505  0.00463066     0.26800
C959        C  0.17859024  0.72055881  0.01263686     0.35400
C960        C  0.17692003  0.77512892  0.01266347     0.35400
C961        C  0.31817755  0.72409155  0.02563969     0.35400
C962        C  0.31597554  0.77876792  0.02700033     0.35400
C963        C  0.23646265  0.64971860  0.98629402    -0.22100
C964        C  0.27097603  0.65058357  0.98944089    -0.22100
C965        C  0.23036712  0.84760268  0.98487178    -0.22100
C966        C  0.26502647  0.84805261  0.98702444    -0.22100
C967        C  0.14616008  0.72979300  0.02219072    -0.23200
C968        C  0.14505413  0.76445527  0.02200582    -0.23200
C969        C  0.34692806  0.73458825  0.04211045    -0.23200
C970        C  0.34525990  0.76932902  0.04352652    -0.23200
C971        C  0.18952618  0.68737787  0.00503758    -0.18500
C972        C  0.31118586  0.69075630  0.01537622    -0.18500
C973        C  0.30746492  0.81180929  0.01627289    -0.18500
C974        C  0.18601583  0.80876822  0.00580822    -0.18500
H975        H  0.22211426  0.62929776  0.97548589     0.14400
H976        H  0.28838041  0.63096949  0.98148391     0.14400
H977        H  0.21468509  0.86680100  0.97346521     0.14400
H978        H  0.28121553  0.86784776  0.97769008     0.14400
H979        H  0.12520365  0.71329474  0.02754157     0.12700
H980        H  0.12312413  0.77998213  0.02723395     0.12700
H981        H  0.36726752  0.71891597  0.05133174     0.12700
H982        H  0.36433313  0.78578438  0.05370668     0.12700
H983        H  0.24775436  0.71943691  0.02718754     0.25900
H984        H  0.24589039  0.78054937  0.02855188     0.25900
C985        C  0.39127399  0.85606430  0.00134111    -0.02100
C986        C  0.38395149  0.89007295  0.01085219     0.07600
C987        C  0.35120337  0.89721498  0.52410206    -0.02200
C988        C  0.32846827  0.87062279  0.53014971    -0.02200
C989        C  0.33405918  0.83865265  0.01519142     0.07700
C990        C  0.36513055  0.83258893  0.99874418    -0.02400
Br991      Br  0.37203023  0.79345922  0.97017309    -0.00900
Br992      Br  0.43648383  0.83834292  0.99454086    -0.01000
Br993      Br  0.29082168  0.87777411  0.56065644    -0.01000
Br994      Br  0.33561002  0.94250840  0.53409642    -0.00900
C995        C  0.34131327  0.63930896  0.53683055    -0.02100
C996        C  0.33920785  0.66562184  0.01317746     0.07600
C997        C  0.36229151  0.66665333  0.98600537    -0.02200
C998        C  0.38857715  0.64272281  0.98368089    -0.02200
C999        C  0.38967481  0.61522181  0.00629364     0.07700
C1000       C  0.36521757  0.61331315  0.53241919    -0.02400
Br1001     Br  0.36370609  0.57529572  0.56251626    -0.00900
Br1002     Br  0.31138346  0.63905753  0.57544886    -0.01000
Br1003     Br  0.42198350  0.64734659  0.94851431    -0.01000
Br1004     Br  0.35613358  0.69914776  0.95036284    -0.00900
C1005       C  0.13711776  0.83580813  0.97593629    -0.02100
C1006       C  0.15894828  0.83485259  0.00390842     0.07600
C1007       C  0.15310350  0.85668172  0.53154627    -0.02200
C1008       C  0.12614607  0.87980838  0.53077178    -0.02200
C1009       C  0.10591882  0.88234201  0.00188404     0.07700
C1010       C  0.11016311  0.85900939  0.97531442    -0.02400
Br1011     Br  0.07796117  0.85757247  0.93914976    -0.00900
Br1012     Br  0.14450589  0.80572353  0.93823320    -0.01000
Br1013     Br  0.11362694  0.90462800  0.57084472    -0.01000
Br1014     Br  0.18141878  0.85430258  0.57085664    -0.00900
C1015       C  0.14082951  0.60568498  0.51769718    -0.02100
C1016       C  0.11373736  0.60977852  0.99494125     0.07600
C1017       C  0.11163181  0.64007692  0.97607733    -0.02200
C1018       C  0.13837166  0.66320692  0.97656287    -0.02200
C1019       C  0.16384913  0.66021396  0.00102892     0.07700
C1020       C  0.16404866  0.63193870  0.52254629    -0.02400
Br1021     Br  0.19444039  0.63028557  0.56044985    -0.00900
Br1022     Br  0.14552232  0.56543968  0.54445694    -0.01000
Br1023     Br  0.14049643  0.69844682  0.94293976    -0.01000
Br1024     Br  0.07152707  0.65237463  0.95171024    -0.00900
C1025       C  0.36054366  0.53223623  0.88897810    -0.02100
C1026       C  0.38124081  0.00337002  0.89169195     0.07600
C1027       C  0.37585346  0.97582250  0.86993548    -0.02200
C1028       C  0.34916997  0.97650540  0.84686294    -0.02200
C1029       C  0.33133759  0.50671422  0.84119502     0.07700
C1030       C  0.33773956  0.53500524  0.86194662    -0.02400
Br1031     Br  0.31660208  0.57790015  0.85272136    -0.00900
Br1032     Br  0.36276862  0.56771696  0.92232957    -0.01000
Br1033     Br  0.33684543  0.93570220  0.82338146    -0.01000
Br1034     Br  0.40498519  0.93705254  0.87138355    -0.00900
C1035       C  0.10168719  0.50568300  0.84849896    -0.02100
C1036       C  0.10523051  0.98623387  0.87821294     0.07600
C1037       C  0.13358798  0.96460896  0.88123785    -0.02200
C1038       C  0.15851686  0.96386265  0.85568761    -0.02200
C1039       C  0.15727511  0.48729502  0.82896001     0.07700
C1040       C  0.12899746  0.50871695  0.82600337    -0.02400
Br1041     Br  0.12894193  0.54493643  0.79355086    -0.00900
Br1042     Br  0.05956545  0.52708132  0.83677200    -0.01000
Br1043     Br  0.19451318  0.93095643  0.85738308    -0.01000
Br1044     Br  0.13771935  0.93436476  0.91917557    -0.00900
C1045       C  0.15110221  0.98516106  0.59779112    -0.02100
C1046       C  0.11828882  0.49890254  0.60378355     0.07600
C1047       C  0.11164241  0.51400440  0.63594737    -0.02200
C1048       C  0.13762956  0.51774534  0.65946575    -0.02200
C1049       C  0.16795370  0.49978262  0.65533323     0.07700
C1050       C  0.17409308  0.98238105  0.62470988    -0.02400
Br1051     Br  0.21346522  0.95367251  0.62011323    -0.00900
Br1052     Br  0.16671243  0.97090620  0.55355469    -0.01000
Br1053     Br  0.13214154  0.54905676  0.69672467    -0.01000
Br1054     Br  0.06739873  0.52910497  0.65058145    -0.00900
C1055       C  0.36190034  0.54037339  0.65909918    -0.02100
C1056       C  0.34017199  0.51284618  0.66388745     0.07600
C1057       C  0.34595610  0.98254331  0.64586962    -0.02200
C1058       C  0.37364981  0.97974401  0.62373358    -0.02200
C1059       C  0.39430992  0.50776779  0.61757398     0.07700
C1060       C  0.38935999  0.53759420  0.63651623    -0.02400
Br1061     Br  0.42077518  0.57412771  0.63253979    -0.00900
Br1062     Br  0.35307794  0.58214660  0.68266326    -0.01000
Br1063     Br  0.38627169  0.93631038  0.60570398    -0.01000
Br1064     Br  0.31586526  0.94489708  0.65140746    -0.00900
C1065       C  0.47293424  0.61704902  0.86553527    -0.02100
C1066       C  0.00330528  0.60548175  0.87953361     0.07600
C1067       C  0.03417913  0.61802200  0.86731848    -0.02200
C1068       C  0.03434625  0.64355795  0.84265286    -0.02200
C1069       C  0.00371000  0.65699892  0.83076595     0.07700
C1070       C  0.47298064  0.64347479  0.84203010    -0.02400
Br1071     Br  0.43098718  0.66096908  0.82494934    -0.00900
Br1072     Br  0.43150946  0.59502328  0.87677048    -0.01000
Br1073     Br  0.07636613  0.66002531  0.82477128    -0.01000
Br1074     Br  0.07610541  0.59915201  0.88299323    -0.00900
C1075       C  0.46468745  0.86074138  0.88597272    -0.02100
C1076       C  0.99170040  0.88348167  0.88891475     0.07600
C1077       C  0.01909715  0.88110129  0.86611011    -0.02200
C1078       C  0.02015672  0.85541768  0.84161907    -0.02200
C1079       C  0.99300403  0.83296659  0.83852753     0.07700
C1080       C  0.46521832  0.83571968  0.86066156    -0.02400
Br1081     Br  0.42756097  0.80562037  0.85561032    -0.00900
Br1082     Br  0.42570738  0.86524620  0.91462730    -0.01000
Br1083     Br  0.05924666  0.85047964  0.81267482    -0.01000
Br1084     Br  0.05537081  0.91307464  0.86799045    -0.00900
C1085       C  0.02583698  0.89261528  0.64040121    -0.02100
C1086       C  0.00160936  0.89208114  0.61437739     0.07600
C1087       C  0.47733288  0.86611676  0.61397578    -0.02200
C1088       C  0.47736495  0.84101969  0.63898180    -0.02200
C1089       C  0.00232106  0.84087185  0.66404537     0.07700
C1090       C  0.02661479  0.86666460  0.66465822    -0.02400
Br1091     Br  0.06171323  0.86581906  0.69816134    -0.00900
Br1092     Br  0.05887220  0.92803315  0.64269355    -0.01000
Br1093     Br  0.44262237  0.80705251  0.63937430    -0.01000
Br1094     Br  0.44265082  0.86529520  0.58025822    -0.00900
C1095       C  0.48294429  0.64086909  0.60736234    -0.02100
C1096       C  0.01041812  0.61868366  0.60242419     0.07600
C1097       C  0.04030144  0.62381122  0.62063067    -0.02200
C1098       C  0.04091808  0.64730906  0.64732368    -0.02200
C1099       C  0.01212902  0.66704154  0.65458623     0.06900
C1100       C  0.48354999  0.66458849  0.63380370    -0.02400
Br1101     Br  0.44491757  0.69333054  0.64194596    -0.00900
Br1102     Br  0.44518272  0.64011572  0.57695601    -0.01000
Br1103     Br  0.08121813  0.65288535  0.67360261    -0.01000
Br1104     Br  0.08146645  0.60256304  0.60555600    -0.00900
N1105       N  0.50668069  0.25177194  0.19621338    -0.36800
N1106       N  0.50818955  0.19723243  0.24494094    -0.57400
N1107       N  0.49716171  0.24613958  0.29908296    -0.36800
N1108       N  0.49834372  0.30065025  0.24996438    -0.57400
C1109       C  0.51664899  0.22587501  0.17618856     0.26800
C1110       C  0.51276552  0.28063647  0.17913908     0.26800
C1111       C  0.50453516  0.21830210  0.31734089     0.26800
C1112       C  0.50010028  0.27308817  0.31988305     0.26800
C1113       C  0.50663920  0.17867114  0.21630899     0.35400
C1114       C  0.50298450  0.17570454  0.27082414     0.35400
C1115       C  0.49327916  0.32115273  0.22327552     0.35400
C1116       C  0.48872811  0.31818213  0.27767986     0.35400
C1117       C  0.52907329  0.23834534  0.14591973    -0.22100
C1118       C  0.52681915  0.27293785  0.14785552    -0.22100
C1119       C  0.51133228  0.22758427  0.35039689    -0.22100
C1120       C  0.50880334  0.26216991  0.35193427    -0.22100
C1121       C  0.50102138  0.14509767  0.22406558    -0.23200
C1122       C  0.49891345  0.14318156  0.25863213    -0.23200
C1123       C  0.48030987  0.35190696  0.23405968    -0.23200
C1124       C  0.47755720  0.35007220  0.26860450    -0.23200
C1125       C  0.51206954  0.19129533  0.18336085    -0.18500
C1126       C  0.50296783  0.31342321  0.18973009    -0.18500
C1127       C  0.49332600  0.30707423  0.31120817    -0.18500
C1128       C  0.50370603  0.18463409  0.30540420    -0.18500
H1129       H  0.53824277  0.22397228  0.12443654     0.14400
H1130       H  0.53380166  0.29038977  0.12807047     0.14400
H1131       H  0.51749624  0.21116545  0.37128684     0.14400
H1132       H  0.51252741  0.27748144  0.37425490     0.14400
H1133       H  0.49910384  0.12409999  0.20667883     0.12700
H1134       H  0.49495502  0.12041775  0.27311695     0.12700
H1135       H  0.47428259  0.37366266  0.21874201     0.12700
H1136       H  0.46900146  0.37013321  0.28521481     0.12700
H1137       H  0.49227155  0.24959552  0.21804714     0.25900
H1138       H  0.48730273  0.24638081  0.27488774     0.25900
O1139       O  0.50517775  0.09886730  0.04654945    -0.86700
O1140       O  0.50046173  0.40706296  0.05654200    -0.86900
O1141       O  0.95090645  0.00686875  0.09781541    -0.88500
O1142       O  0.56040293  0.99811672  0.08793338    -0.87300
O1143       O  0.59965651  0.49826814  0.04579869    -0.86900
O1144       O  0.90785774  0.50426473  0.05937142    -0.88300
O1145       O  0.50269191  0.44936300  0.09611872    -0.86700
O1146       O  0.50837560  0.06017142  0.08956851    -0.86300
Zr1147     Zr  0.50336217  0.50291007  0.06559814     2.84300
O1148       O  0.53388420  0.46620766  0.03054409    -1.08300
O1149       O  0.96809954  0.03625168  0.03199631    -1.09000
C1150       C  0.50793743  0.09071644  0.07787924     1.06400
C1151       C  0.50179899  0.41795596  0.08730812     1.06300
C1152       C  0.91946189  0.00632748  0.08977342     1.09300
C1153       C  0.59118753  0.99817768  0.07731767     1.07100
H1154       H  0.95260084  0.45564948  0.05103364     0.32700
O1155       O  0.96609954  0.46857849  0.03541554    -1.29300
H1156       H  0.55142804  0.04782554  0.04061516     0.32300
O1157       O  0.53626295  0.03390634  0.02784085    -1.30900
O1158       O  0.49251658  0.40157037  0.44638637    -0.86700
O1159       O  0.50266287  0.09210137  0.43760178    -0.88200
O1160       O  0.90096615  0.44821422  0.50487170    -0.86800
O1161       O  0.59171705  0.44019782  0.49748790    -0.86800
O1162       O  0.59599715  0.05225731  0.49045209    -0.86500
O1163       O  0.90499357  0.05748340  0.50257511    -0.86400
O1164       O  0.93918799  0.49985781  0.40514738    -0.86700
O1165       O  0.54876161  0.49007627  0.39893735    -0.86200
O1166       O  0.90034252  0.50261341  0.44841108    -0.87200
O1167       O  0.59214097  0.49264632  0.43666946    -0.86400
O1168       O  0.94122444  0.40733417  0.50688445    -0.86800
O1169       O  0.94680925  0.09698684  0.49942900    -0.86500
O1170       O  0.55608957  0.09407439  0.49449959    -0.86200
O1171       O  0.54941736  0.40094084  0.50046916    -0.86600
O1172       O  0.49161798  0.44098837  0.40396414    -0.86900
O1173       O  0.50004928  0.04927008  0.39849352    -0.88200
Zr1174     Zr  0.49675205  0.43199714  0.50035339     2.83100
Zr1175     Zr  0.50107685  0.06746487  0.49422628     2.83500
Zr1176     Zr  0.93107434  0.50189728  0.50172704     2.84100
Zr1177     Zr  0.56758877  0.49720604  0.49328399     2.83400
Zr1178     Zr  0.49553949  0.49658103  0.42959772     2.84200
O1179       O  0.53266332  0.03097253  0.45963421    -1.08800
O1180       O  0.96176698  0.46514332  0.46654967    -1.08300
C1181       C  0.49149751  0.41036994  0.41492106     1.06400
C1182       C  0.50233714  0.08058772  0.40701193     1.09000
C1183       C  0.91025116  0.41703921  0.50740210     1.06500
C1184       C  0.58060879  0.40962672  0.49972270     1.06900
C1185       C  0.58687568  0.08365513  0.49274924     1.06500
C1186       C  0.91559531  0.08817824  0.50229774     1.06000
C1187       C  0.90872378  0.50190928  0.41679989     1.06500
C1188       C  0.58035973  0.48977821  0.40643050     1.06000
H1189       H  0.94990014  0.04787542  0.45003124     0.32700
O1190       O  0.96403641  0.03355293  0.46382056    -1.29900
H1191       H  0.54318840  0.44723786  0.44897727     0.32700
O1192       O  0.53049640  0.46278868  0.46300305    -1.31300
N1193       N  0.74707346  0.99922263  0.29905942    -0.36800
N1194       N  0.69920066  0.99511126  0.24430646    -0.57400
N1195       N  0.75273956  0.00643722  0.19644745    -0.36800
N1196       N  0.80081918  0.01189457  0.25095295    -0.57400
C1197       C  0.71753788  0.00129496  0.31625677     0.26800
C1198       C  0.77177042  0.00897954  0.32029163     0.26800
C1199       C  0.72552541  0.01279904  0.17716933     0.26800
C1200       C  0.77975457  0.01893765  0.18004047     0.26800
C1201       C  0.68009832  0.98307662  0.26983261     0.35400
C1202       C  0.68339856  0.98712103  0.21530388     0.35400
C1203       C  0.81946681  0.00738097  0.27907253     0.35400
C1204       C  0.82225340  0.00909940  0.22434578     0.35400
C1205       C  0.72351824  0.01266833  0.34879229    -0.22100
C1206       C  0.75773726  0.01667793  0.35159132    -0.22100
C1207       C  0.73533936  0.03033747  0.14844836    -0.22100
C1208       C  0.76980402  0.03364670  0.14999300    -0.22100
C1209       C  0.65197217  0.96708777  0.25703888    -0.23200
C1210       C  0.65413006  0.96952867  0.22240118    -0.23200
C1211       C  0.85305069  0.00282430  0.27017936    -0.23200
C1212       C  0.85470611  0.00340451  0.23555541    -0.23200
C1213       C  0.68592795  0.99006674  0.30433423    -0.18500
C1214       C  0.80672911  0.00846566  0.31268053    -0.18500
C1215       C  0.81329303  0.01408051  0.19020658    -0.18500
C1216       C  0.69311399  0.99945477  0.18316701    -0.18500
H1217       H  0.70530106  0.01640927  0.36892186     0.14400
H1218       H  0.77062346  0.02396004  0.37439942     0.14400
H1219       H  0.71956889  0.03846891  0.12778676     0.14400
H1220       H  0.78578724  0.04502628  0.13098376     0.14400
H1221       H  0.63159263  0.95576771  0.27121435     0.12700
H1222       H  0.63569368  0.96050779  0.20457656     0.12700
H1223       H  0.87429441  0.99940524  0.28677802     0.12700
H1224       H  0.87735053  0.00068523  0.22041833     0.12700
H1225       H  0.75070069  0.98768580  0.27571302     0.25900
H1226       H  0.75372563  0.99008297  0.21693243     0.25900
N1227       N  0.74983289  0.19805417  0.51162969    -0.36800
N1228       N  0.69724117  0.24833251  0.50678051    -0.57400
N1229       N  0.74675845  0.30115581  0.51219242    -0.36800
N1230       N  0.79926720  0.25099325  0.51647279    -0.57400
C1231       C  0.72395528  0.17937504  0.50008529     0.26800
C1232       C  0.77856002  0.18078094  0.50486448     0.26800
C1233       C  0.71979031  0.31823051  0.50030277     0.26800
C1234       C  0.77448948  0.31933148  0.50458207     0.26800
C1235       C  0.67851921  0.22057560  0.51236422     0.35400
C1236       C  0.67684329  0.27513821  0.51241764     0.35400
C1237       C  0.81812613  0.22403221  0.52528718     0.35400
C1238       C  0.81591162  0.27870821  0.52682829     0.35400
C1239       C  0.73634866  0.14971325  0.48596943    -0.22100
C1240       C  0.77086837  0.15056395  0.48906232    -0.22100
C1241       C  0.73032527  0.34766876  0.48485666    -0.22100
C1242       C  0.76498087  0.34811192  0.48704017    -0.22100
C1243       C  0.64607780  0.22980091  0.52189103    -0.23200
C1244       C  0.64496813  0.26446033  0.52172214    -0.23200
C1245       C  0.84685360  0.23447954  0.54182794    -0.23200
C1246       C  0.84517611  0.26921562  0.54335961    -0.23200
C1247       C  0.68946133  0.18740023  0.50476741    -0.18500
C1248       C  0.81112620  0.19071342  0.51496596    -0.18500
C1249       C  0.80740430  0.31179158  0.51621413    -0.18500
C1250       C  0.68595169  0.30878074  0.50562082    -0.18500
H1251       H  0.72197233  0.12929327  0.47519655     0.14400
H1252       H  0.78825163  0.13093420  0.48109783     0.14400
H1253       H  0.71465364  0.36689359  0.47348020     0.14400
H1254       H  0.78117654  0.36792612  0.47775999     0.14400
H1255       H  0.62511739  0.21329953  0.52721635     0.12700
H1256       H  0.62303296  0.27998222  0.52694379     0.12700
H1257       H  0.86717635  0.21877865  0.55103808     0.12700
H1258       H  0.86422912  0.28563925  0.55362801     0.12700
H1259       H  0.74772256  0.21943293  0.52682517     0.25900
H1260       H  0.74581792  0.28050013  0.52837646     0.25900
C1261       C  0.89123865  0.35607500  0.50146218    -0.02100
C1262       C  0.88390334  0.39007952  0.51096711     0.07600
C1263       C  0.85114045  0.39720707  0.02418811    -0.02200
C1264       C  0.82840066  0.37060421  0.03019451    -0.02200
C1265       C  0.83400566  0.33864262  0.51521261     0.07700
C1266       C  0.86510034  0.33260405  0.49879994    -0.02400
Br1267     Br  0.87204885  0.29353885  0.47015541    -0.00900
Br1268     Br  0.93645645  0.33834311  0.49476829    -0.01000
Br1269     Br  0.79073207  0.37773443  0.06067557    -0.01000
Br1270     Br  0.83553480  0.44249409  0.03418860    -0.00900
C1271       C  0.84116906  0.13922087  0.03644845    -0.02100
C1272       C  0.83913432  0.16555234  0.51280673     0.07600
C1273       C  0.86233431  0.16663164  0.48573364    -0.02200
C1274       C  0.88864877  0.14272281  0.48349010    -0.02200
C1275       C  0.88969243  0.11521839  0.50610329     0.07700
C1276       C  0.86514875  0.11327749  0.03214419    -0.02400
Br1277     Br  0.86364688  0.07529686  0.06229469    -0.00900
Br1278     Br  0.81103255  0.13886660  0.07490601    -0.01000
Br1279     Br  0.92217270  0.14737928  0.44843068    -0.01000
Br1280     Br  0.85630590  0.19916864  0.45010957    -0.00900
C1281       C  0.63703835  0.33591044  0.47583461    -0.02100
C1282       C  0.65889403  0.33487731  0.50378861     0.07600
C1283       C  0.65306608  0.35661894  0.03149852    -0.02200
C1284       C  0.62611779  0.37975512  0.03080897    -0.02200
C1285       C  0.60587397  0.38236913  0.50194148     0.07700
C1286       C  0.61007160  0.35909758  0.47531578    -0.02400
Br1287     Br  0.57775625  0.35770483  0.43924239    -0.00900
Br1288     Br  0.64440831  0.30597785  0.43800849    -0.01000
Br1289     Br  0.61362420  0.40444109  0.07097277    -0.01000
Br1290     Br  0.68139197  0.35410325  0.07079500    -0.00900
C1291       C  0.64076116  0.10577400  0.01763334    -0.02100
C1292       C  0.61369952  0.10980230  0.49483292     0.07600
C1293       C  0.61160364  0.14005168  0.47589020    -0.02200
C1294       C  0.63834797  0.16316812  0.47631901    -0.02200
C1295       C  0.66379187  0.16024120  0.50082113     0.07700
C1296       C  0.66396374  0.13204592  0.02243800    -0.02400
Br1297     Br  0.69430927  0.13052844  0.06038476    -0.00900
Br1298     Br  0.64544727  0.06558953  0.04448040    -0.01000
Br1299     Br  0.64051563  0.19830291  0.44258681    -0.01000
Br1300     Br  0.57150038  0.15233500  0.45152202    -0.00900
C1301       C  0.86055045  0.03228595  0.38892587    -0.02100
C1302       C  0.88125615  0.50334122  0.39174025     0.07600
C1303       C  0.87593135  0.47580135  0.36996009    -0.02200
C1304       C  0.84926013  0.47646130  0.34687316    -0.02200
C1305       C  0.83129382  0.00677702  0.34115825     0.07700
C1306       C  0.83772721  0.03506661  0.36190447    -0.02400
Br1307     Br  0.81658791  0.07796623  0.35270197    -0.00900
Br1308     Br  0.86281975  0.06777649  0.42226410    -0.01000
Br1309     Br  0.83705304  0.43566732  0.32331059    -0.01000
Br1310     Br  0.90515122  0.43708747  0.37139863    -0.00900
C1311       C  0.60173076  0.00568353  0.34852211    -0.02100
C1312       C  0.60518819  0.48627708  0.37821929     0.07600
C1313       C  0.63356556  0.46468388  0.38128499    -0.02200
C1314       C  0.65849536  0.46391334  0.35573944    -0.02200
C1315       C  0.65727522  0.98724469  0.32890665     0.07700
C1316       C  0.62901616  0.00869506  0.32599400    -0.02400
Br1317     Br  0.62897638  0.04494229  0.29357242    -0.00900
Br1318     Br  0.55963949  0.02719649  0.33689109    -0.01000
Br1319     Br  0.69443441  0.43094191  0.35741344    -0.01000
Br1320     Br  0.63773876  0.43451823  0.41927856    -0.00900
C1321       C  0.65110524  0.48510798  0.09785694    -0.02100
C1322       C  0.61830086  0.99898124  0.10372494     0.07600
C1323       C  0.61167793  0.01412410  0.13587096    -0.02200
C1324       C  0.63767388  0.01782831  0.15938298    -0.02200
C1325       C  0.66794637  0.99977257  0.15527068     0.07700
C1326       C  0.67412519  0.48240543  0.12476701    -0.02400
Br1327     Br  0.71357186  0.45380064  0.12016915    -0.00900
Br1328     Br  0.66666507  0.47070969  0.05364853    -0.01000
Br1329     Br  0.63229396  0.04923772  0.19657175    -0.01000
Br1330     Br  0.56746750  0.02936810  0.15045789    -0.00900
C1331       C  0.86181729  0.04036456  0.15900766    -0.02100
C1332       C  0.84016764  0.01278556  0.16384444     0.07600
C1333       C  0.84587649  0.48262327  0.14585293    -0.02200
C1334       C  0.87359565  0.47976770  0.12375977    -0.02200
C1335       C  0.89429305  0.00778981  0.11750976     0.07700
C1336       C  0.88927211  0.03762836  0.13641500    -0.02400
Br1337     Br  0.92059351  0.07423518  0.13238656    -0.00900
Br1338     Br  0.85292941  0.08212525  0.18257273    -0.01000
Br1339     Br  0.88617050  0.43629805  0.10578905    -0.01000
Br1340     Br  0.81560644  0.44509527  0.15119457    -0.00900
C1341       C  0.97299494  0.11707116  0.36548045    -0.02100
C1342       C  0.50336316  0.10550252  0.37948788     0.07600
C1343       C  0.53424066  0.11805299  0.36728400    -0.02200
C1344       C  0.53440897  0.14358937  0.34261889    -0.02200
C1345       C  0.50377129  0.15701382  0.33071368     0.07700
C1346       C  0.97304196  0.14351253  0.34199674    -0.02400
Br1347     Br  0.93104276  0.16109457  0.32500735    -0.00900
Br1348     Br  0.93157229  0.09500281  0.37662905    -0.01000
Br1349     Br  0.57643804  0.16010593  0.32480406    -0.01000
Br1350     Br  0.57617765  0.09918452  0.38293903    -0.00900
C1351       C  0.96474443  0.36068838  0.38605276    -0.02100
C1352       C  0.49175637  0.38344226  0.38893666     0.07600
C1353       C  0.51908758  0.38108936  0.36604178    -0.02200
C1354       C  0.52008931  0.35540869  0.34154183    -0.02200
C1355       C  0.49293637  0.33294926  0.33851815     0.07700
C1356       C  0.96521507  0.33567874  0.36072994    -0.02400
Br1357     Br  0.92756077  0.30555950  0.35576475    -0.00900
Br1358     Br  0.92581739  0.36517902  0.41478064    -0.01000
Br1359     Br  0.55911085  0.35046361  0.31250240    -0.01000
Br1360     Br  0.55534515  0.41309191  0.36778991    -0.00900
C1361       C  0.52588303  0.39268368  0.14047785    -0.02100
C1362       C  0.50165363  0.39212720  0.11445336     0.07600
C1363       C  0.97737612  0.36616658  0.11407453    -0.02200
C1364       C  0.97744070  0.34106071  0.13906719    -0.02200
C1365       C  0.50241608  0.34091483  0.16410637     0.07700
C1366       C  0.52668156  0.36673181  0.16473377    -0.02400
Br1367     Br  0.56173916  0.36593299  0.19828042    -0.00900
Br1368     Br  0.55886574  0.42814872  0.14279472    -0.01000
Br1369     Br  0.94270560  0.30708643  0.13949235    -0.01000
Br1370     Br  0.94263150  0.36538141  0.08042454    -0.00900
C1371       C  0.98294074  0.14097945  0.10733478    -0.02100
C1372       C  0.51040702  0.11879033  0.10233902     0.07600
C1373       C  0.54032488  0.12393730  0.12048488    -0.02200
C1374       C  0.54098533  0.14742230  0.14719038    -0.02200
C1375       C  0.51220068  0.16712914  0.15452957     0.06900
C1376       C  0.98357798  0.16466558  0.13381140    -0.02400
Br1377     Br  0.94491839  0.19332274  0.14212906    -0.00900
Br1378     Br  0.94516985  0.14031458  0.07694125    -0.01000
Br1379     Br  0.58132273  0.15298783  0.17341241    -0.01000
Br1380     Br  0.58147012  0.10273551  0.10530402    -0.00900
N1381       N  0.50668056  0.25177192  0.69621348    -0.36800
N1382       N  0.50818959  0.19723241  0.74494099    -0.57400
N1383       N  0.49716159  0.24613953  0.79908298    -0.36800
N1384       N  0.49834359  0.30065024  0.74996440    -0.57400
C1385       C  0.51664889  0.22587499  0.67618862     0.26800
C1386       C  0.51276535  0.28063647  0.67913910     0.26800
C1387       C  0.50453511  0.21830206  0.81734090     0.26800
C1388       C  0.50010016  0.27308812  0.81988303     0.26800
C1389       C  0.50663925  0.17867111  0.71630904     0.35400
C1390       C  0.50298449  0.17570453  0.77082418     0.35400
C1391       C  0.49327894  0.32115272  0.72327555     0.35400
C1392       C  0.48872807  0.31818212  0.77767989     0.35400
C1393       C  0.52907314  0.23834532  0.64591976    -0.22100
C1394       C  0.52681900  0.27293787  0.64785552    -0.22100
C1395       C  0.51133232  0.22758423  0.85039689    -0.22100
C1396       C  0.50880332  0.26216987  0.85193423    -0.22100
C1397       C  0.50102144  0.14509765  0.72406563    -0.23200
C1398       C  0.49891349  0.14318156  0.75863218    -0.23200
C1399       C  0.48030968  0.35190698  0.73405977    -0.23200
C1400       C  0.47755719  0.35007221  0.76860459    -0.23200
C1401       C  0.51206948  0.19129532  0.68336089    -0.18500
C1402       C  0.50296759  0.31342319  0.68973012    -0.18500
C1403       C  0.49332591  0.30707419  0.81120818    -0.18500
C1404       C  0.50370595  0.18463407  0.80540422    -0.18500
H1405       H  0.53824262  0.22397220  0.62443659     0.14400
H1406       H  0.53380152  0.29038977  0.62807049     0.14400
H1407       H  0.51749630  0.21116544  0.87128684     0.14400
H1408       H  0.51252739  0.27748143  0.87425482     0.14400
H1409       H  0.49910388  0.12409996  0.70667891     0.12700
H1410       H  0.49495505  0.12041776  0.77311701     0.12700
H1411       H  0.47428232  0.37366270  0.71874218     0.12700
H1412       H  0.46900150  0.37013319  0.78521496     0.12700
H1413       H  0.49227148  0.24959547  0.71804725     0.25900
H1414       H  0.48730256  0.24638073  0.77488774     0.25900
O1415       O  0.50517779  0.09886743  0.54654936    -0.86700
O1416       O  0.50046178  0.40706289  0.55654197    -0.86900
O1417       O  0.95090647  0.00686893  0.59781540    -0.88500
O1418       O  0.56040289  0.99811674  0.58793337    -0.87300
O1419       O  0.59965650  0.49826810  0.54579869    -0.86900
O1420       O  0.90785777  0.50426486  0.55937139    -0.88300
O1421       O  0.50269194  0.44936293  0.59611869    -0.86700
O1422       O  0.50837563  0.06017152  0.58956841    -0.86300
Zr1423     Zr  0.50336215  0.50291011  0.56559820     2.84300
O1424       O  0.53388409  0.46620778  0.53054406    -1.08300
O1425       O  0.96809953  0.03625166  0.53199635    -1.09000
C1426       C  0.50793744  0.09071656  0.57787915     1.06400
C1427       C  0.50179905  0.41795588  0.58730809     1.06300
C1428       C  0.91946190  0.00632769  0.58977342     1.09300
C1429       C  0.59118748  0.99817770  0.57731764     1.07100
H1430       H  0.95260072  0.45564947  0.55103362     0.32700
O1431       O  0.96609948  0.46857849  0.53541557    -1.29300
H1432       H  0.55142807  0.04782549  0.54061512     0.32300
O1433       O  0.53626296  0.03390632  0.52784081    -1.30900
O1434       O  0.49251665  0.40157040  0.94638632    -0.86700
O1435       O  0.50266270  0.09210134  0.93760180    -0.88200
O1436       O  0.90096607  0.44821422  0.00487178    -0.86800
O1437       O  0.59171701  0.44019777  0.99748801    -0.86800
O1438       O  0.59599703  0.05225738  0.99045207    -0.86500
O1439       O  0.90499347  0.05748341  0.00257495    -0.86400
O1440       O  0.93918797  0.49985778  0.90514747    -0.86700
O1441       O  0.54876168  0.49007622  0.89893742    -0.86200
O1442       O  0.90034247  0.50261336  0.94841114    -0.87200
O1443       O  0.59214106  0.49264646  0.93666950    -0.86400
O1444       O  0.94122440  0.40733422  0.00688450    -0.86800
O1445       O  0.94680921  0.09698681  0.99942910    -0.86500
O1446       O  0.55608945  0.09407446  0.99449954    -0.86200
O1447       O  0.54941732  0.40094080  0.00046918    -0.86600
O1448       O  0.49161783  0.44098840  0.90396409    -0.86900
O1449       O  0.50004936  0.04927004  0.89849354    -0.88200
Zr1450     Zr  0.49675205  0.43199715  0.00035336     2.83100
Zr1451     Zr  0.50107681  0.06746485  0.99422628     2.83500
Zr1452     Zr  0.93107430  0.50189723  0.00172708     2.84100
Zr1453     Zr  0.56758881  0.49720601  0.99328399     2.83400
Zr1454     Zr  0.49553949  0.49658104  0.92959772     2.84200
O1455       O  0.53266332  0.03097247  0.95963429    -1.08800
O1456       O  0.96176698  0.46514335  0.96654969    -1.08300
C1457       C  0.49149748  0.41036996  0.91492100     1.06400
C1458       C  0.50233707  0.08058769  0.90701195     1.09000
C1459       C  0.91025111  0.41703923  0.00740218     1.06500
C1460       C  0.58060874  0.40962668  0.99972277     1.06900
C1461       C  0.58687556  0.08365520  0.99274924     1.06500
C1462       C  0.91559524  0.08817824  0.00229772     1.06000
C1463       C  0.90872376  0.50190924  0.91679995     1.06500
C1464       C  0.58035981  0.48977829  0.90643055     1.06000
H1465       H  0.94990016  0.04787543  0.95003116     0.32700
O1466       O  0.96403643  0.03355291  0.96382055    -1.29900
H1467       H  0.54318839  0.44723800  0.94897724     0.32700
O1468       O  0.53049641  0.46278873  0.96300302    -1.31300
N1469       N  0.74707349  0.99922276  0.79905941    -0.36800
N1470       N  0.69920067  0.99511131  0.74430642    -0.57400
N1471       N  0.75273959  0.00643741  0.69644744    -0.36800
N1472       N  0.80081922  0.01189473  0.75095296    -0.57400
C1473       C  0.71753789  0.00129510  0.81625679     0.26800
C1474       C  0.77177048  0.00897955  0.82029170     0.26800
C1475       C  0.72552543  0.01279924  0.67716933     0.26800
C1476       C  0.77975459  0.01893784  0.68004046     0.26800
C1477       C  0.68009830  0.98307673  0.76983258     0.35400
C1478       C  0.68339854  0.98712117  0.71530384     0.35400
C1479       C  0.81946686  0.00738104  0.77907254     0.35400
C1480       C  0.82225342  0.00909955  0.72434578     0.35400
C1481       C  0.72351830  0.01266834  0.84879234    -0.22100
C1482       C  0.75773733  0.01667788  0.85159141    -0.22100
C1483       C  0.73533938  0.03033770  0.64844838    -0.22100
C1484       C  0.76980404  0.03364689  0.64999299    -0.22100
C1485       C  0.65197215  0.96708787  0.75703884    -0.23200
C1486       C  0.65413002  0.96952886  0.72240115    -0.23200
C1487       C  0.85305076  0.00282437  0.77017935    -0.23200
C1488       C  0.85470612  0.00340455  0.73555540    -0.23200
C1489       C  0.68592795  0.99006690  0.80433421    -0.18500
C1490       C  0.80672918  0.00846566  0.81268055    -0.18500
C1491       C  0.81329303  0.01408066  0.69020659    -0.18500
C1492       C  0.69311399  0.99945497  0.68316697    -0.18500
H1493       H  0.70530111  0.01640930  0.86892193     0.14400
H1494       H  0.77062352  0.02395999  0.87439952     0.14400
H1495       H  0.71956889  0.03846920  0.62778682     0.14400
H1496       H  0.78578726  0.04502647  0.63098374     0.14400
H1497       H  0.63159263  0.95576773  0.77121426     0.12700
H1498       H  0.63569359  0.96050808  0.70457652     0.12700
H1499       H  0.87429448  0.99940532  0.78677800     0.12700
H1500       H  0.87735051  0.00068516  0.72041827     0.12700
H1501       H  0.75070068  0.98768605  0.77571302     0.25900
H1502       H  0.75372571  0.99008317  0.71693243     0.25900
N1503       N  0.74983279  0.19805419  0.01162977    -0.36800
N1504       N  0.69724110  0.24833250  0.00678058    -0.57400
N1505       N  0.74675840  0.30115579  0.01219246    -0.36800
N1506       N  0.79926712  0.25099323  0.01647286    -0.57400
C1507       C  0.72395518  0.17937504  0.00008539     0.26800
C1508       C  0.77855993  0.18078095  0.00486452     0.26800
C1509       C  0.71979031  0.31823047  0.00030269     0.26800
C1510       C  0.77448946  0.31933145  0.00458219     0.26800
C1511       C  0.67851909  0.22057561  0.01236424     0.35400
C1512       C  0.67684326  0.27513822  0.01241767     0.35400
C1513       C  0.81812602  0.22403218  0.02528725     0.35400
C1514       C  0.81591155  0.27870817  0.02682840     0.35400
C1515       C  0.73634853  0.14971324  0.98596953    -0.22100
C1516       C  0.77086826  0.15056399  0.98906234    -0.22100
C1517       C  0.73032532  0.34766871  0.98485661    -0.22100
C1518       C  0.76498092  0.34811188  0.98704026    -0.22100
C1519       C  0.64607766  0.22980096  0.02189099    -0.23200
C1520       C  0.64496807  0.26446038  0.02172217    -0.23200
C1521       C  0.84685346  0.23447947  0.04182805    -0.23200
C1522       C  0.84517602  0.26921554  0.04335971    -0.23200
C1523       C  0.68946124  0.18740024  0.00476750    -0.18500
C1524       C  0.81112610  0.19071340  0.01496603    -0.18500
C1525       C  0.80740426  0.31179155  0.01621431    -0.18500
C1526       C  0.68595168  0.30878074  0.00562076    -0.18500
H1527       H  0.72197219  0.12929326  0.97519668     0.14400
H1528       H  0.78825153  0.13093427  0.98109776     0.14400
H1529       H  0.71465374  0.36689355  0.97348009     0.14400
H1530       H  0.78117664  0.36792609  0.97776019     0.14400
H1531       H  0.62511720  0.21329962  0.02721627     0.12700
H1532       H  0.62303294  0.27998233  0.02694385     0.12700
H1533       H  0.86717617  0.21877854  0.05103824     0.12700
H1534       H  0.86422905  0.28563916  0.05362811     0.12700
H1535       H  0.74772246  0.21943292  0.02682526     0.25900
H1536       H  0.74581779  0.28050016  0.02837654     0.25900
C1537       C  0.89123859  0.35607502  0.00146230    -0.02100
C1538       C  0.88390330  0.39007953  0.01096720     0.07600
C1539       C  0.85114050  0.39720709  0.52418805    -0.02200
C1540       C  0.82840069  0.37060425  0.53019446    -0.02200
C1541       C  0.83400565  0.33864258  0.01521276     0.07700
C1542       C  0.86510033  0.33260401  0.99880015    -0.02400
Br1543     Br  0.87204891  0.29353873  0.97015577    -0.00900
Br1544     Br  0.93645637  0.33834323  0.99476843    -0.01000
Br1545     Br  0.79073216  0.37773438  0.56067569    -0.01000
Br1546     Br  0.83553502  0.44249421  0.53418855    -0.00900
C1547       C  0.84116914  0.13922091  0.53644835    -0.02100
C1548       C  0.83913422  0.16555231  0.01280683     0.07600
C1549       C  0.86233422  0.16663161  0.98573374    -0.02200
C1550       C  0.88864868  0.14272279  0.98349014    -0.02200
C1551       C  0.88969237  0.11521838  0.00610333     0.07700
C1552       C  0.86514880  0.11327749  0.53214411    -0.02400
Br1553     Br  0.86364690  0.07529684  0.56229463    -0.00900
Br1554     Br  0.81103255  0.13886656  0.57490577    -0.01000
Br1555     Br  0.92217250  0.14737922  0.94843061    -0.01000
Br1556     Br  0.85630592  0.19916864  0.95010972    -0.00900
C1557       C  0.63703834  0.33591047  0.97583460    -0.02100
C1558       C  0.65889403  0.33487733  0.00378859     0.07600
C1559       C  0.65306608  0.35661897  0.53149850    -0.02200
C1560       C  0.62611778  0.37975517  0.53080895    -0.02200
C1561       C  0.60587393  0.38236910  0.00194152     0.07700
C1562       C  0.61007153  0.35909757  0.97531581    -0.02400
Br1563     Br  0.57775612  0.35770479  0.93924240    -0.00900
Br1564     Br  0.64440836  0.30597803  0.93800841    -0.01000
Br1565     Br  0.61362425  0.40444126  0.57097268    -0.01000
Br1566     Br  0.68139199  0.35410324  0.57079494    -0.00900
C1567       C  0.64076128  0.10577398  0.51763328    -0.02100
C1568       C  0.61369940  0.10980236  0.99483299     0.07600
C1569       C  0.61160350  0.14005177  0.97589033    -0.02200
C1570       C  0.63834786  0.16316816  0.97631913    -0.02200
C1571       C  0.66379177  0.16024123  0.00082121     0.07700
C1572       C  0.66396387  0.13204590  0.52243796    -0.02400
Br1573     Br  0.69430951  0.13052837  0.56038465    -0.00900
Br1574     Br  0.64544734  0.06558949  0.54448035    -0.01000
Br1575     Br  0.64051564  0.19830289  0.94258693    -0.01000
Br1576     Br  0.57150015  0.15233523  0.95152241    -0.00900
C1577       C  0.86055043  0.03228590  0.88892591    -0.02100
C1578       C  0.88125617  0.50334122  0.89174026     0.07600
C1579       C  0.87593141  0.47580141  0.86996002    -0.02200
C1580       C  0.84926019  0.47646133  0.84687310    -0.02200
C1581       C  0.83129394  0.00677705  0.84115823     0.07700
C1582       C  0.83772726  0.03506659  0.86190448    -0.02400
Br1583     Br  0.81658792  0.07796621  0.85270211    -0.00900
Br1584     Br  0.86281978  0.06777647  0.92226407    -0.01000
Br1585     Br  0.83705309  0.43566731  0.82331052    -0.01000
Br1586     Br  0.90515130  0.43708760  0.87139855    -0.00900
C1587       C  0.60173081  0.00568370  0.84852214    -0.02100
C1588       C  0.60518826  0.48627716  0.87821935     0.07600
C1589       C  0.63356561  0.46468393  0.88128506    -0.02200
C1590       C  0.65849538  0.46391330  0.85573947    -0.02200
C1591       C  0.65727524  0.98724483  0.82890664     0.07700
C1592       C  0.62901621  0.00869524  0.82599402    -0.02400
Br1593     Br  0.62897643  0.04494245  0.79357239    -0.00900
Br1594     Br  0.55963955  0.02719667  0.83689107    -0.01000
Br1595     Br  0.69443445  0.43094189  0.85741359    -0.01000
Br1596     Br  0.63773879  0.43451825  0.91927867    -0.00900
C1597       C  0.65110525  0.48510804  0.59785687    -0.02100
C1598       C  0.61830080  0.99898126  0.60372491     0.07600
C1599       C  0.61167787  0.01412409  0.63587094    -0.02200
C1600       C  0.63767385  0.01782843  0.65938291    -0.02200
C1601       C  0.66794638  0.99977278  0.65527060     0.07700
C1602       C  0.67412518  0.48240548  0.62476696    -0.02400
Br1603     Br  0.71357191  0.45380082  0.62016906    -0.00900
Br1604     Br  0.66666510  0.47070967  0.55364847    -0.01000
Br1605     Br  0.63229378  0.04923771  0.69657172    -0.01000
Br1606     Br  0.56746747  0.02936803  0.65045801    -0.00900
C1607       C  0.86181726  0.04036468  0.65900778    -0.02100
C1608       C  0.84016762  0.01278569  0.66384446     0.07600
C1609       C  0.84587634  0.48262347  0.64585285    -0.02200
C1610       C  0.87359552  0.47976789  0.62375971    -0.02200
C1611       C  0.89429303  0.00779000  0.61750978     0.07700
C1612       C  0.88927209  0.03762850  0.63641514    -0.02400
Br1613     Br  0.92059333  0.07423539  0.63238673    -0.00900
Br1614     Br  0.85292923  0.08212539  0.68257287    -0.01000
Br1615     Br  0.88617029  0.43629825  0.60578898    -0.01000
Br1616     Br  0.81560625  0.44509549  0.65119449    -0.00900
C1617       C  0.97299485  0.11707112  0.86548047    -0.02100
C1618       C  0.50336308  0.10550252  0.87948790     0.07600
C1619       C  0.53424055  0.11805307  0.86728410    -0.02200
C1620       C  0.53440891  0.14358948  0.84261902    -0.02200
C1621       C  0.50377121  0.15701383  0.83071371     0.07700
C1622       C  0.97304190  0.14351245  0.84199673    -0.02400
Br1623     Br  0.93104274  0.16109432  0.82500722    -0.00900
Br1624     Br  0.93157218  0.09500258  0.87662895    -0.01000
Br1625     Br  0.57643801  0.16010612  0.82480426    -0.01000
Br1626     Br  0.57617750  0.09918471  0.88293923    -0.00900
C1627       C  0.96474437  0.36068839  0.88605277    -0.02100
C1628       C  0.49175635  0.38344226  0.88893662     0.07600
C1629       C  0.51908756  0.38108930  0.86604178    -0.02200
C1630       C  0.52008931  0.35540860  0.84154190    -0.02200
C1631       C  0.49293634  0.33294921  0.83851816     0.07700
C1632       C  0.96521500  0.33567872  0.86072996    -0.02400
Br1633     Br  0.92756064  0.30555947  0.85576491    -0.00900
Br1634     Br  0.92581725  0.36517902  0.91478057    -0.01000
Br1635     Br  0.55911091  0.35046352  0.81250255    -0.01000
Br1636     Br  0.55534502  0.41309192  0.86778983    -0.00900
C1637       C  0.52588302  0.39268361  0.64047785    -0.02100
C1638       C  0.50165368  0.39212712  0.61445331     0.07600
C1639       C  0.97737616  0.36616657  0.61407443    -0.02200
C1640       C  0.97744069  0.34106067  0.63906706    -0.02200
C1641       C  0.50241590  0.34091485  0.66410642     0.07700
C1642       C  0.52668141  0.36673181  0.66473387    -0.02400
Br1643     Br  0.56173894  0.36593295  0.69828059    -0.00900
Br1644     Br  0.55886577  0.42814863  0.64279467    -0.01000
Br1645     Br  0.94270565  0.30708638  0.63949203    -0.01000
Br1646     Br  0.94263153  0.36538159  0.58042446    -0.00900
C1647       C  0.98294070  0.14097941  0.60733475    -0.02100
C1648       C  0.51040700  0.11879044  0.60233894     0.07600
C1649       C  0.54032483  0.12393734  0.62048482    -0.02200
C1650       C  0.54098522  0.14742230  0.64719035    -0.02200
C1651       C  0.51220058  0.16712915  0.65452959     0.06900
C1652       C  0.98357798  0.16466557  0.63381134    -0.02400
Br1653     Br  0.94491842  0.19332271  0.64212900    -0.00900
Br1654     Br  0.94516987  0.14031453  0.57694118    -0.01000
Br1655     Br  0.58132258  0.15298778  0.67341238    -0.01000
Br1656     Br  0.58147011  0.10273549  0.60530398    -0.00900
N1657       N  0.50656142  0.75172765  0.19620451    -0.36800
N1658       N  0.50813567  0.69720143  0.24497882    -0.57400
N1659       N  0.49723893  0.74614862  0.29910343    -0.36800
N1660       N  0.49839252  0.80065340  0.24994661    -0.57400
C1661       C  0.51648028  0.72581440  0.17617589     0.26800
C1662       C  0.51259565  0.78057771  0.17908488     0.26800
C1663       C  0.50451477  0.71829918  0.31738553     0.26800
C1664       C  0.50017439  0.77310063  0.31990057     0.26800
C1665       C  0.50659855  0.67862162  0.21635798     0.35400
C1666       C  0.50298049  0.67567775  0.27087670     0.35400
C1667       C  0.49329129  0.82114833  0.22325542     0.35400
C1668       C  0.48887672  0.81821830  0.27767730     0.35400
C1669       C  0.52880997  0.73826050  0.14585787    -0.22100
C1670       C  0.52655549  0.77285129  0.14776690    -0.22100
C1671       C  0.51125822  0.72758155  0.35045346    -0.22100
C1672       C  0.50878993  0.76217407  0.35197419    -0.22100
C1673       C  0.50105100  0.64504096  0.22413770    -0.23200
C1674       C  0.49896875  0.64313956  0.25870408    -0.23200
C1675       C  0.48041013  0.85193295  0.23405556    -0.23200
C1676       C  0.47774878  0.85012601  0.26860791    -0.23200
C1677       C  0.51196142  0.69123493  0.18339352    -0.18500
C1678       C  0.50286210  0.81338229  0.18968159    -0.18500
C1679       C  0.49344824  0.80709669  0.31121020    -0.18500
C1680       C  0.50365951  0.68462405  0.30545503    -0.18500
H1681       H  0.53792268  0.72387205  0.12436113     0.14400
H1682       H  0.53348447  0.79028366  0.12794590     0.14400
H1683       H  0.51734158  0.71115806  0.37136373     0.14400
H1684       H  0.51248409  0.77748446  0.37430117     0.14400
H1685       H  0.49915277  0.62402943  0.20676550     0.12700
H1686       H  0.49505564  0.62037539  0.27320100     0.12700
H1687       H  0.47437186  0.87368684  0.21873968     0.12700
H1688       H  0.46925746  0.87020977  0.28522307     0.12700
H1689       H  0.49222772  0.74957028  0.21808846     0.25900
H1690       H  0.48743408  0.74640195  0.27488910     0.25900
O1691       O  0.50520769  0.59880364  0.04663079    -0.86700
O1692       O  0.50046682  0.90703860  0.05647615    -0.86900
O1693       O  0.95090613  0.50683888  0.09784001    -0.88500
O1694       O  0.56039229  0.49807627  0.08795445    -0.87300
O1695       O  0.59965753  0.99830554  0.04576325    -0.86900
O1696       O  0.90788093  0.00429760  0.05931744    -0.88300
O1697       O  0.50266914  0.94933490  0.09606161    -0.86700
O1698       O  0.50840496  0.56009191  0.08963502    -0.86300
Zr1699     Zr  0.50337087  0.00293060  0.06558105     2.84300
O1700       O  0.53390476  0.96621155  0.03053423    -1.08300
O1701       O  0.96808295  0.53624827  0.03203923    -1.09000
C1702       C  0.50797510  0.59063380  0.07795502     1.06400
C1703       C  0.50177713  0.91792509  0.08724340     1.06300
C1704       C  0.91945746  0.50629127  0.08981974     1.09300
C1705       C  0.59118147  0.49812281  0.07735394     1.07100
H1706       H  0.95262463  0.95567011  0.05097830     0.32700
O1707       O  0.96612624  0.96859502  0.03537242    -1.29300
H1708       H  0.55141744  0.54781335  0.04065259     0.32300
O1709       O  0.53625104  0.53390610  0.02787539    -1.30900
O1710       O  0.49244664  0.90161137  0.44634903    -0.86700
O1711       O  0.50262839  0.59209362  0.43764652    -0.88200
O1712       O  0.90101848  0.94819875  0.50473670    -0.86800
O1713       O  0.59173228  0.94017090  0.49741791    -0.86800
O1714       O  0.59601312  0.55224281  0.49050054    -0.86500
O1715       O  0.90496318  0.55748235  0.50269821    -0.86400
O1716       O  0.93919030  0.99985298  0.40509752    -0.86700
O1717       O  0.54881630  0.99006272  0.39894552    -0.86200
O1718       O  0.90034901  0.00262274  0.44836356    -0.87200
O1719       O  0.59220537  0.99258112  0.43667220    -0.86400
O1720       O  0.94127437  0.90731939  0.50683778    -0.86800
O1721       O  0.94678172  0.59698448  0.49951705    -0.86500
O1722       O  0.55610742  0.59405650  0.49457430    -0.86200
O1723       O  0.54944064  0.90090409  0.50033773    -0.86600
O1724       O  0.49155875  0.94102311  0.40391896    -0.86900
O1725       O  0.50001030  0.54925434  0.39854463    -0.88200
Zr1726     Zr  0.49678674  0.93200659  0.50031219     2.83100
Zr1727     Zr  0.50106446  0.56746896  0.49427550     2.83500
Zr1728     Zr  0.93110109  0.00190410  0.50166918     2.84100
Zr1729     Zr  0.56760505  0.99719357  0.49325328     2.83400
Zr1730     Zr  0.49555983  0.99659729  0.42955129     2.84200
O1731       O  0.53263549  0.53097638  0.45966975    -1.08800
O1732       O  0.96180904  0.96515783  0.46651197    -1.08300
C1733       C  0.49141476  0.91040963  0.41488635     1.06400
C1734       C  0.50229175  0.58057311  0.40705964     1.09000
C1735       C  0.91030224  0.91702549  0.50729801     1.06500
C1736       C  0.58063405  0.90959129  0.49961028     1.06900
C1737       C  0.58689786  0.58363873  0.49282297     1.06500
C1738       C  0.91556796  0.58817697  0.50242410     1.06000
C1739       C  0.90872314  0.00191466  0.41674982     1.06500
C1740       C  0.58041635  0.98973275  0.40643541     1.06000
H1741       H  0.94992623  0.54781975  0.45013485     0.32700
O1742       O  0.96402957  0.53353326  0.46388637    -1.29900
H1743       H  0.54323309  0.94719736  0.44889712     0.32700
O1744       O  0.53052201  0.96278561  0.46294988    -1.31300
N1745       N  0.74709184  0.49923519  0.29913757    -0.36800
N1746       N  0.69921505  0.49519215  0.24438160    -0.57400
N1747       N  0.75275064  0.50650946  0.19651263    -0.36800
N1748       N  0.80083547  0.51193019  0.25101093    -0.57400
C1749       C  0.71756672  0.50128687  0.31635385     0.26800
C1750       C  0.77180742  0.50891712  0.32037741     0.26800
C1751       C  0.72553193  0.51286839  0.17723898     0.26800
C1752       C  0.77976241  0.51901195  0.18010116     0.26800
C1753       C  0.68013019  0.48312598  0.26990664     0.35400
C1754       C  0.68343042  0.48716520  0.21537815     0.35400
C1755       C  0.81948679  0.50737922  0.27912268     0.35400
C1756       C  0.82226773  0.50916257  0.22439736     0.35400
C1757       C  0.72357338  0.51256774  0.34891793    -0.22100
C1758       C  0.75779864  0.51654275  0.35170779    -0.22100
C1759       C  0.73534054  0.53040710  0.14851682    -0.22100
C1760       C  0.76980622  0.53371549  0.15005361    -0.22100
C1761       C  0.65203413  0.46708708  0.25711337    -0.23200
C1762       C  0.65419373  0.46952146  0.22247695    -0.23200
C1763       C  0.85306967  0.50283772  0.27021902    -0.23200
C1764       C  0.85472063  0.50345318  0.23559748    -0.23200
C1765       C  0.68594575  0.49011249  0.30440996    -0.18500
C1766       C  0.80675964  0.50840434  0.31273655    -0.18500
C1767       C  0.81330349  0.51415746  0.19025963    -0.18500
C1768       C  0.69312679  0.49950527  0.18323605    -0.18500
H1769       H  0.70537154  0.51626692  0.36906907     0.14400
H1770       H  0.77070486  0.52375809  0.37452650     0.14400
H1771       H  0.71956652  0.53853195  0.12785567     0.14400
H1772       H  0.78578701  0.54508889  0.13103847     0.14400
H1773       H  0.63167666  0.45572813  0.27128906     0.12700
H1774       H  0.63577698  0.46046024  0.20465297     0.12700
H1775       H  0.87431654  0.49939623  0.28680879     0.12700
H1776       H  0.87736279  0.50073943  0.22045653     0.12700
H1777       H  0.75070099  0.48776107  0.27575917     0.25900
H1778       H  0.75374082  0.49015052  0.21699360     0.25900
N1779       N  0.74988779  0.69805543  0.51199740    -0.36800
N1780       N  0.69730909  0.74831511  0.50702237    -0.57400
N1781       N  0.74682332  0.80115941  0.51230941    -0.36800
N1782       N  0.79931131  0.75102350  0.51676429    -0.57400
C1783       C  0.72403332  0.67936687  0.50040689     0.26800
C1784       C  0.77863152  0.68079910  0.50526329     0.26800
C1785       C  0.71984540  0.81820501  0.50040853     0.26800
C1786       C  0.77454772  0.81931503  0.50463077     0.26800
C1787       C  0.67859025  0.72055879  0.51263689     0.35400
C1788       C  0.67692000  0.77512891  0.51266347     0.35400
C1789       C  0.81817760  0.72409160  0.52563972     0.35400
C1790       C  0.81597554  0.77876795  0.52700045     0.35400
C1791       C  0.73646275  0.64971880  0.48629394    -0.22100
C1792       C  0.77097612  0.65058377  0.48944077    -0.22100
C1793       C  0.73036713  0.84760269  0.48487184    -0.22100
C1794       C  0.76502646  0.84805260  0.48702456    -0.22100
C1795       C  0.64616013  0.72979297  0.52219087    -0.23200
C1796       C  0.64505415  0.76445525  0.52200597    -0.23200
C1797       C  0.84692809  0.73458828  0.54211051    -0.23200
C1798       C  0.84525992  0.76932904  0.54352661    -0.23200
C1799       C  0.68952619  0.68737786  0.50503763    -0.18500
C1800       C  0.81118592  0.69075640  0.51537622    -0.18500
C1801       C  0.80746488  0.81180930  0.51627303    -0.18500
C1802       C  0.68601582  0.80876824  0.50580829    -0.18500
H1803       H  0.72211435  0.62929799  0.47548572     0.14400
H1804       H  0.78838052  0.63096976  0.48148366     0.14400
H1805       H  0.71468513  0.86680108  0.47346531     0.14400
H1806       H  0.78121555  0.86784776  0.47769024     0.14400
H1807       H  0.62520376  0.71329467  0.52754186     0.12700
H1808       H  0.62312417  0.77998209  0.52723425     0.12700
H1809       H  0.86726755  0.71891600  0.55133179     0.12700
H1810       H  0.86433318  0.78578436  0.55370676     0.12700
H1811       H  0.74775432  0.71943697  0.52718766     0.25900
H1812       H  0.74589028  0.78054931  0.52855186     0.25900
C1813       C  0.89127395  0.85606427  0.50134103    -0.02100
C1814       C  0.88395150  0.89007292  0.51085212     0.07600
C1815       C  0.85120338  0.89721496  0.02410215    -0.02200
C1816       C  0.82846827  0.87062275  0.03014973    -0.02200
C1817       C  0.83405912  0.83865267  0.51519141     0.07700
C1818       C  0.86513043  0.83258896  0.49874405    -0.02400
Br1819     Br  0.87203001  0.79345927  0.47017291    -0.00900
Br1820     Br  0.93648380  0.83834292  0.49454090    -0.01000
Br1821     Br  0.79082148  0.87777396  0.06065627    -0.01000
Br1822     Br  0.83561002  0.94250841  0.03409650    -0.00900
C1823       C  0.84131319  0.63930885  0.03683059    -0.02100
C1824       C  0.83920795  0.66562196  0.51317742     0.07600
C1825       C  0.86229161  0.66665344  0.48600530    -0.02200
C1826       C  0.88857725  0.64272294  0.48368085    -0.02200
C1827       C  0.88967489  0.61522193  0.50629360     0.07700
C1828       C  0.86521752  0.61331306  0.03241925    -0.02400
Br1829     Br  0.86370610  0.57529571  0.06251637    -0.00900
Br1830     Br  0.81138347  0.63905755  0.07544895    -0.01000
Br1831     Br  0.92198374  0.64734667  0.44851437    -0.01000
Br1832     Br  0.85613361  0.69914779  0.45036268    -0.00900
C1833       C  0.63711775  0.83580810  0.47593639    -0.02100
C1834       C  0.65894828  0.83485262  0.50390852     0.07600
C1835       C  0.65310357  0.85668166  0.03154612    -0.02200
C1836       C  0.62614615  0.87980833  0.03077167    -0.02200
C1837       C  0.60591880  0.88234199  0.50188409     0.07700
C1838       C  0.61016312  0.85900939  0.47531448    -0.02400
Br1839     Br  0.57796119  0.85757250  0.43914980    -0.00900
Br1840     Br  0.64450592  0.80572355  0.43823326    -0.01000
Br1841     Br  0.61362718  0.90462786  0.07084463    -0.01000
Br1842     Br  0.68141882  0.85430237  0.07085648    -0.00900
C1843       C  0.64082947  0.60568499  0.01769727    -0.02100
C1844       C  0.61373741  0.60977852  0.49494116     0.07600
C1845       C  0.61163189  0.64007687  0.47607718    -0.02200
C1846       C  0.63837174  0.66320689  0.47656280    -0.02200
C1847       C  0.66384918  0.66021391  0.50102890     0.07700
C1848       C  0.66404859  0.63193874  0.02254645    -0.02400
Br1849     Br  0.69444035  0.63028563  0.06045009    -0.00900
Br1850     Br  0.64552232  0.56543970  0.04445701    -0.01000
Br1851     Br  0.64049645  0.69844688  0.44293981    -0.01000
Br1852     Br  0.57152712  0.65237465  0.45171009    -0.00900
C1853       C  0.86054358  0.53223630  0.38897805    -0.02100
C1854       C  0.88124080  0.00337009  0.39169190     0.07600
C1855       C  0.87585343  0.97582257  0.36993543    -0.02200
C1856       C  0.84916985  0.97650538  0.34686300    -0.02200
C1857       C  0.83133749  0.50671418  0.34119507     0.07700
C1858       C  0.83773944  0.53500523  0.36194660    -0.02400
Br1859     Br  0.81660184  0.57790003  0.35272119    -0.00900
Br1860     Br  0.86276862  0.56771720  0.42232936    -0.01000
Br1861     Br  0.83684541  0.93570207  0.32338153    -0.01000
Br1862     Br  0.90498500  0.93705255  0.37138362    -0.00900
C1863       C  0.60168722  0.50568297  0.34849896    -0.02100
C1864       C  0.60523047  0.98623382  0.37821294     0.07600
C1865       C  0.63358798  0.96460894  0.38123792    -0.02200
C1866       C  0.65851684  0.96386253  0.35568766    -0.02200
C1867       C  0.65727513  0.48729505  0.32896003     0.07700
C1868       C  0.62899751  0.50871699  0.32600343    -0.02400
Br1869     Br  0.62894195  0.54493648  0.29355093    -0.00900
Br1870     Br  0.55956542  0.52708093  0.33677181    -0.01000
Br1871     Br  0.69451315  0.93095628  0.35738315    -0.01000
Br1872     Br  0.63771935  0.93436482  0.41917566    -0.00900
C1873       C  0.65110222  0.98516094  0.09779120    -0.02100
C1874       C  0.61828883  0.49890258  0.10378356     0.07600
C1875       C  0.61164243  0.51400447  0.13594737    -0.02200
C1876       C  0.63762961  0.51774537  0.15946573    -0.02200
C1877       C  0.66795374  0.49978264  0.15533324     0.07700
C1878       C  0.67409307  0.98238086  0.12470997    -0.02400
Br1879     Br  0.71346523  0.95367231  0.12011330    -0.00900
Br1880     Br  0.66671247  0.97090623  0.05355474    -0.01000
Br1881     Br  0.63214175  0.54905687  0.19672454    -0.01000
Br1882     Br  0.56739875  0.52910502  0.15058150    -0.00900
C1883       C  0.86190040  0.54037323  0.15909924    -0.02100
C1884       C  0.84017204  0.51284600  0.16388750     0.07600
C1885       C  0.84595618  0.98254303  0.14586966    -0.02200
C1886       C  0.87364988  0.97974378  0.12373358    -0.02200
C1887       C  0.89430992  0.50776760  0.11757399     0.07700
C1888       C  0.88936001  0.53759401  0.13651624    -0.02400
Br1889     Br  0.92077519  0.57412751  0.13253964    -0.00900
Br1890     Br  0.85307818  0.58214653  0.18266330    -0.01000
Br1891     Br  0.88627171  0.93631020  0.10570382    -0.01000
Br1892     Br  0.81586551  0.94489665  0.15140755    -0.00900
C1893       C  0.97293419  0.61704907  0.36553529    -0.02100
C1894       C  0.50330526  0.60548174  0.37953361     0.07600
C1895       C  0.53417912  0.61802201  0.36731850    -0.02200
C1896       C  0.53434622  0.64355794  0.34265285    -0.02200
C1897       C  0.50370995  0.65699888  0.33076595     0.07700
C1898       C  0.97298059  0.64347474  0.34203001    -0.02400
Br1899     Br  0.93098716  0.66096890  0.32494915    -0.00900
Br1900     Br  0.93150945  0.59502333  0.37677055    -0.01000
Br1901     Br  0.57636610  0.66002556  0.32477138    -0.01000
Br1902     Br  0.57610538  0.59915186  0.38299324    -0.00900
C1903       C  0.96468732  0.86074139  0.38597271    -0.02100
C1904       C  0.49170035  0.88348165  0.38891475     0.07600
C1905       C  0.51909713  0.88110128  0.36611012    -0.02200
C1906       C  0.52015667  0.85541772  0.34161899    -0.02200
C1907       C  0.49300396  0.83296661  0.33852748     0.07700
C1908       C  0.96521813  0.83571970  0.36066154    -0.02400
Br1909     Br  0.92756074  0.80562043  0.35561038    -0.00900
Br1910     Br  0.92570721  0.86524626  0.41462733    -0.01000
Br1911     Br  0.55924661  0.85047971  0.31267468    -0.01000
Br1912     Br  0.55537080  0.91307465  0.36799051    -0.00900
C1913       C  0.52583705  0.89261519  0.14040116    -0.02100
C1914       C  0.50160936  0.89208112  0.11437743     0.07600
C1915       C  0.97733276  0.86611679  0.11397585    -0.02200
C1916       C  0.97736488  0.84101973  0.13898186    -0.02200
C1917       C  0.50232102  0.84087186  0.16404539     0.07700
C1918       C  0.52661481  0.86666454  0.16465816    -0.02400
Br1919     Br  0.56171330  0.86581887  0.19816119    -0.00900
Br1920     Br  0.55887245  0.92803294  0.14269337    -0.01000
Br1921     Br  0.94262235  0.80705252  0.13937438    -0.01000
Br1922     Br  0.94265063  0.86529525  0.08025833    -0.00900
C1923       C  0.98294425  0.64086909  0.10736227    -0.02100
C1924       C  0.51041807  0.61868363  0.10242430     0.07600
C1925       C  0.54030140  0.62381123  0.12063074    -0.02200
C1926       C  0.54091804  0.64730909  0.14732373    -0.02200
C1927       C  0.51212898  0.66704157  0.15458629     0.06900
C1928       C  0.98354997  0.66458853  0.13380361    -0.02400
Br1929     Br  0.94491757  0.69333059  0.14194579    -0.00900
Br1930     Br  0.94518255  0.64011553  0.07695609    -0.01000
Br1931     Br  0.58121798  0.65288539  0.17360271    -0.01000
Br1932     Br  0.58146644  0.60256309  0.10555607    -0.00900
N1933       N  0.50656145  0.75172764  0.69620455    -0.36800
N1934       N  0.50813570  0.69720142  0.74497878    -0.57400
N1935       N  0.49723899  0.74614862  0.79910350    -0.36800
N1936       N  0.49839259  0.80065339  0.74994665    -0.57400
C1937       C  0.51648027  0.72581438  0.67617587     0.26800
C1938       C  0.51259569  0.78057769  0.67908486     0.26800
C1939       C  0.50451487  0.71829919  0.81738555     0.26800
C1940       C  0.50017447  0.77310064  0.81990061     0.26800
C1941       C  0.50659859  0.67862159  0.71635794     0.35400
C1942       C  0.50298053  0.67567776  0.77087668     0.35400
C1943       C  0.49329133  0.82114829  0.72325544     0.35400
C1944       C  0.48887683  0.81821831  0.77767735     0.35400
C1945       C  0.52880987  0.73826046  0.64585782    -0.22100
C1946       C  0.52655544  0.77285123  0.64776686    -0.22100
C1947       C  0.51125838  0.72758161  0.85045348    -0.22100
C1948       C  0.50879003  0.76217411  0.85197423    -0.22100
C1949       C  0.50105106  0.64504094  0.72413767    -0.23200
C1950       C  0.49896882  0.64313955  0.75870405    -0.23200
C1951       C  0.48041017  0.85193289  0.73405560    -0.23200
C1952       C  0.47774884  0.85012600  0.76860796    -0.23200
C1953       C  0.51196144  0.69123491  0.68339349    -0.18500
C1954       C  0.50286213  0.81338228  0.68968158    -0.18500
C1955       C  0.49344840  0.80709671  0.81121024    -0.18500
C1956       C  0.50365958  0.68462406  0.80545504    -0.18500
H1957       H  0.53792242  0.72387199  0.62436102     0.14400
H1958       H  0.53348439  0.79028358  0.62794582     0.14400
H1959       H  0.51734182  0.71115817  0.87136376     0.14400
H1960       H  0.51248417  0.77748450  0.87430119     0.14400
H1961       H  0.49915286  0.62402940  0.70676549     0.12700
H1962       H  0.49505578  0.62037538  0.77320096     0.12700
H1963       H  0.47437189  0.87368676  0.71873968     0.12700
H1964       H  0.46925752  0.87020979  0.78522310     0.12700
H1965       H  0.49222781  0.74957032  0.71808848     0.25900
H1966       H  0.48743412  0.74640194  0.77488914     0.25900
O1967       O  0.50520772  0.59880361  0.54663070    -0.86700
O1968       O  0.50046686  0.90703866  0.55647612    -0.86900
O1969       O  0.95090614  0.50683902  0.59784001    -0.88500
O1970       O  0.56039230  0.49807622  0.58795447    -0.87300
O1971       O  0.59965747  0.99830554  0.54576322    -0.86900
O1972       O  0.90788096  0.00429775  0.55931743    -0.88300
O1973       O  0.50266917  0.94933494  0.59606157    -0.86700
O1974       O  0.50840500  0.56009194  0.58963500    -0.86300
Zr1975     Zr  0.50337089  0.00293062  0.56558100     2.84300
O1976       O  0.53390471  0.96621157  0.53053412    -1.08300
O1977       O  0.96808300  0.53624830  0.53203919    -1.09000
C1978       C  0.50797514  0.59063381  0.57795495     1.06400
C1979       C  0.50177715  0.91792514  0.58724336     1.06300
C1980       C  0.91945747  0.50629141  0.58981973     1.09300
C1981       C  0.59118148  0.49812277  0.57735393     1.07100
H1982       H  0.95262474  0.95567012  0.55097816     0.32700
O1983       O  0.96612628  0.96859498  0.53537237    -1.29300
H1984       H  0.55141731  0.54781352  0.54065270     0.32300
O1985       O  0.53625098  0.53390618  0.52787544    -1.30900
O1986       O  0.49244667  0.90161141  0.94634904    -0.86700
O1987       O  0.50262841  0.59209354  0.93764655    -0.88200
O1988       O  0.90101847  0.94819877  0.00473677    -0.86800
O1989       O  0.59173236  0.94017094  0.99741786    -0.86800
O1990       O  0.59601314  0.55224280  0.99050050    -0.86500
O1991       O  0.90496315  0.55748227  0.00269827    -0.86400
O1992       O  0.93919034  0.99985318  0.90509747    -0.86700
O1993       O  0.54881633  0.99006268  0.89894555    -0.86200
O1994       O  0.90034907  0.00262272  0.94836354    -0.87200
O1995       O  0.59220541  0.99258109  0.93667223    -0.86400
O1996       O  0.94127438  0.90731942  0.00683785    -0.86800
O1997       O  0.94678170  0.59698441  0.99951722    -0.86500
O1998       O  0.55610740  0.59405645  0.99457427    -0.86200
O1999       O  0.54944069  0.90090418  0.00033780    -0.86600
O2000       O  0.49155878  0.94102313  0.90391896    -0.86900
O2001       O  0.50001034  0.54925431  0.89854461    -0.88200
Zr2002     Zr  0.49678675  0.93200661  0.00031226     2.83100
Zr2003     Zr  0.50106445  0.56746894  0.99427559     2.83500
Zr2004     Zr  0.93110106  0.00190413  0.00166920     2.84100
Zr2005     Zr  0.56760507  0.99719356  0.99325334     2.83400
Zr2006     Zr  0.49555986  0.99659726  0.92955131     2.84200
O2007       O  0.53263546  0.53097634  0.95966984    -1.08800
O2008       O  0.96180898  0.96515782  0.96651200    -1.08300
C2009       C  0.49141478  0.91040967  0.91488635     1.06400
C2010       C  0.50229177  0.58057307  0.90705964     1.09000
C2011       C  0.91030225  0.91702552  0.00729808     1.06500
C2012       C  0.58063410  0.90959135  0.99961028     1.06900
C2013       C  0.58689786  0.58363871  0.99282296     1.06500
C2014       C  0.91556793  0.58817689  0.00242421     1.06000
C2015       C  0.90872319  0.00191473  0.91674980     1.06500
C2016       C  0.58041639  0.98973272  0.90643542     1.06000
H2017       H  0.94992624  0.54781978  0.95013496     0.32700
O2018       O  0.96402960  0.53353321  0.96388647    -1.29900
H2019       H  0.54323316  0.94719728  0.94889708     0.32700
O2020       O  0.53052205  0.96278557  0.96294990    -1.31300
N2021       N  0.74709188  0.49923533  0.79913759    -0.36800
N2022       N  0.69921507  0.49519213  0.74438157    -0.57400
N2023       N  0.75275053  0.50650955  0.69651268    -0.36800
N2024       N  0.80083547  0.51193032  0.75101093    -0.57400
C2025       C  0.71756678  0.50128687  0.81635387     0.26800
C2026       C  0.77180747  0.50891723  0.82037741     0.26800
C2027       C  0.72553185  0.51286838  0.67723893     0.26800
C2028       C  0.77976230  0.51901217  0.68010123     0.26800
C2029       C  0.68013024  0.48312598  0.76990665     0.35400
C2030       C  0.68343038  0.48716518  0.71537815     0.35400
C2031       C  0.81948682  0.50737939  0.77912266     0.35400
C2032       C  0.82226767  0.50916266  0.72439734     0.35400
C2033       C  0.72357344  0.51256771  0.84891798    -0.22100
C2034       C  0.75779869  0.51654277  0.85170782    -0.22100
C2035       C  0.73534046  0.53040715  0.64851677    -0.22100
C2036       C  0.76980614  0.53371571  0.65005367    -0.22100
C2037       C  0.65203414  0.46708712  0.75711346    -0.23200
C2038       C  0.65419367  0.46952144  0.72247704    -0.23200
C2039       C  0.85306970  0.50283792  0.77021897    -0.23200
C2040       C  0.85472060  0.50345333  0.73559741    -0.23200
C2041       C  0.68594581  0.49011245  0.80440998    -0.18500
C2042       C  0.80675968  0.50840442  0.81273654    -0.18500
C2043       C  0.81330339  0.51415761  0.69025964    -0.18500
C2044       C  0.69312674  0.49950521  0.68323603    -0.18500
H2045       H  0.70537159  0.51626683  0.86906912     0.14400
H2046       H  0.77070492  0.52375806  0.87452655     0.14400
H2047       H  0.71956647  0.53853194  0.62785557     0.14400
H2048       H  0.78578697  0.54508918  0.63103862     0.14400
H2049       H  0.63167674  0.45572819  0.77128927     0.12700
H2050       H  0.63577693  0.46046011  0.70465310     0.12700
H2051       H  0.87431659  0.49939645  0.78680870     0.12700
H2052       H  0.87736275  0.50073966  0.72045642     0.12700
H2053       H  0.75070102  0.48776125  0.77575914     0.25900
H2054       H  0.75374074  0.49015061  0.71699361     0.25900
N2055       N  0.74988774  0.69805532  0.01199729    -0.36800
N2056       N  0.69730911  0.74831512  0.00702246    -0.57400
N2057       N  0.74682336  0.80115948  0.01230940    -0.36800
N2058       N  0.79931128  0.75102346  0.01676429    -0.57400
C2059       C  0.72403321  0.67936681  0.00040690     0.26800
C2060       C  0.77863144  0.68079898  0.00526327     0.26800
C2061       C  0.71984543  0.81820503  0.00040852     0.26800
C2062       C  0.77454777  0.81931503  0.00463068     0.26800
C2063       C  0.67859022  0.72055883  0.01263691     0.35400
C2064       C  0.67692003  0.77512894  0.01266345     0.35400
C2065       C  0.81817754  0.72409154  0.02563975     0.35400
C2066       C  0.81597554  0.77876792  0.02700039     0.35400
C2067       C  0.73646253  0.64971863  0.98629405    -0.22100
C2068       C  0.77097593  0.65058355  0.98944088    -0.22100
C2069       C  0.73036717  0.84760269  0.98487177    -0.22100
C2070       C  0.76502650  0.84805259  0.98702445    -0.22100
C2071       C  0.64616008  0.72979304  0.02219074    -0.23200
C2072       C  0.64505414  0.76445531  0.02200583    -0.23200
C2073       C  0.84692802  0.73458825  0.04211057    -0.23200
C2074       C  0.84525987  0.76932902  0.04352663    -0.23200
C2075       C  0.68952613  0.68737787  0.00503771    -0.18500
C2076       C  0.81118585  0.69075629  0.01537621    -0.18500
C2077       C  0.80746495  0.81180928  0.01627290    -0.18500
C2078       C  0.68601583  0.80876824  0.00580815    -0.18500
H2079       H  0.72211407  0.62929783  0.97548595     0.14400
H2080       H  0.78838024  0.63096943  0.98148387     0.14400
H2081       H  0.71468516  0.86680103  0.97346519     0.14400
H2082       H  0.78121559  0.86784773  0.97769009     0.14400
H2083       H  0.62520366  0.71329476  0.02754162     0.12700
H2084       H  0.62312414  0.77998218  0.02723396     0.12700
H2085       H  0.86726749  0.71891600  0.05133187     0.12700
H2086       H  0.86433310  0.78578436  0.05370679     0.12700
H2087       H  0.74775430  0.71943692  0.02718755     0.25900
H2088       H  0.74589036  0.78054937  0.02855189     0.25900
C2089       C  0.89127403  0.85606430  0.00134112    -0.02100
C2090       C  0.88395154  0.89007294  0.01085220     0.07600
C2091       C  0.85120332  0.89721497  0.52410205    -0.02200
C2092       C  0.82846823  0.87062278  0.53014973    -0.02200
C2093       C  0.83405920  0.83865265  0.01519140     0.07700
C2094       C  0.86513058  0.83258892  0.99874418    -0.02400
Br2095     Br  0.87203028  0.79345922  0.97017310    -0.00900
Br2096     Br  0.93648387  0.83834292  0.99454086    -0.01000
Br2097     Br  0.79082154  0.87777412  0.56065642    -0.01000
Br2098     Br  0.83561006  0.94250840  0.53409643    -0.00900
C2099       C  0.84131328  0.63930896  0.53683055    -0.02100
C2100       C  0.83920786  0.66562183  0.01317745     0.07600
C2101       C  0.86229158  0.66665334  0.98600540    -0.02200
C2102       C  0.88857726  0.64272286  0.98368099    -0.02200
C2103       C  0.88967485  0.61522183  0.00629369     0.07700
C2104       C  0.86521760  0.61331317  0.53241919    -0.02400
Br2105     Br  0.86370614  0.57529573  0.56251626    -0.00900
Br2106     Br  0.81138351  0.63905753  0.57544887    -0.01000
Br2107     Br  0.92198378  0.64734663  0.94851455    -0.01000
Br2108     Br  0.85613365  0.69914774  0.95036285    -0.00900
C2109       C  0.63711780  0.83580823  0.97593622    -0.02100
C2110       C  0.65894831  0.83485264  0.00390836     0.07600
C2111       C  0.65310354  0.85668173  0.53154626    -0.02200
C2112       C  0.62614611  0.87980838  0.53077177    -0.02200
C2113       C  0.60591881  0.88234202  0.00188404     0.07700
C2114       C  0.61016312  0.85900947  0.97531438    -0.02400
Br2115     Br  0.57796118  0.85757249  0.93914974    -0.00900
Br2116     Br  0.64450595  0.80572373  0.93823313    -0.01000
Br2117     Br  0.61362700  0.90462800  0.57084472    -0.01000
Br2118     Br  0.68141883  0.85430258  0.57085663    -0.00900
C2119       C  0.64082951  0.60568497  0.51769717    -0.02100
C2120       C  0.61373737  0.60977853  0.99494127     0.07600
C2121       C  0.61163182  0.64007694  0.97607736    -0.02200
C2122       C  0.63837169  0.66320693  0.97656294    -0.02200
C2123       C  0.66384910  0.66021397  0.00102906     0.07700
C2124       C  0.66404866  0.63193870  0.52254633    -0.02400
Br2125     Br  0.69444038  0.63028559  0.56044999    -0.00900
Br2126     Br  0.64552237  0.56543967  0.54445693    -0.01000
Br2127     Br  0.64049650  0.69844680  0.94293978    -0.01000
Br2128     Br  0.57152712  0.65237464  0.95171024    -0.00900
C2129       C  0.86054361  0.53223628  0.88897809    -0.02100
C2130       C  0.88124081  0.00337007  0.89169196     0.07600
C2131       C  0.87585352  0.97582254  0.86993549    -0.02200
C2132       C  0.84917000  0.97650543  0.84686298    -0.02200
C2133       C  0.83133752  0.50671421  0.84119506     0.07700
C2134       C  0.83773947  0.53500525  0.86194667    -0.02400
Br2135     Br  0.81660210  0.57790017  0.85272133    -0.00900
Br2136     Br  0.86276866  0.56771713  0.92232951    -0.01000
Br2137     Br  0.83684546  0.93570217  0.82338166    -0.01000
Br2138     Br  0.90498525  0.93705257  0.87138356    -0.00900
C2139       C  0.60168723  0.50568298  0.84849898    -0.02100
C2140       C  0.60523047  0.98623385  0.87821292     0.07600
C2141       C  0.63358796  0.96460896  0.88123786    -0.02200
C2142       C  0.65851686  0.96386265  0.85568763    -0.02200
C2143       C  0.65727516  0.48729499  0.82896004     0.07700
C2144       C  0.62899751  0.50871692  0.82600341    -0.02400
Br2145     Br  0.62894201  0.54493648  0.79355105    -0.00900
Br2146     Br  0.55956550  0.52708133  0.83677201    -0.01000
Br2147     Br  0.69451321  0.93095645  0.85738309    -0.01000
Br2148     Br  0.63771919  0.93436475  0.91917556    -0.00900
C2149       C  0.65110219  0.98516104  0.59779114    -0.02100
C2150       C  0.61828885  0.49890258  0.60378353     0.07600
C2151       C  0.61164242  0.51400441  0.63594737    -0.02200
C2152       C  0.63762953  0.51774532  0.65946576    -0.02200
C2153       C  0.66795368  0.49978261  0.65533323     0.07700
C2154       C  0.67409308  0.98238105  0.62470989    -0.02400
Br2155     Br  0.71346526  0.95367253  0.62011323    -0.00900
Br2156     Br  0.66671246  0.97090621  0.55355470    -0.01000
Br2157     Br  0.63214158  0.54905677  0.69672467    -0.01000
Br2158     Br  0.56739875  0.52910499  0.65058146    -0.00900
C2159       C  0.86190029  0.54037338  0.65909916    -0.02100
C2160       C  0.84017193  0.51284617  0.66388744     0.07600
C2161       C  0.84595612  0.98254320  0.64586963    -0.02200
C2162       C  0.87364981  0.97974396  0.62373356    -0.02200
C2163       C  0.89430990  0.50776776  0.61757400     0.07700
C2164       C  0.88935998  0.53759417  0.63651624    -0.02400
Br2165     Br  0.92077521  0.57412768  0.63253980    -0.00900
Br2166     Br  0.85307799  0.58214659  0.68266326    -0.01000
Br2167     Br  0.88627177  0.93631037  0.60570396    -0.01000
Br2168     Br  0.81586534  0.94489687  0.65140746    -0.00900
C2169       C  0.97293424  0.61704909  0.86553535    -0.02100
C2170       C  0.50330530  0.60548172  0.87953359     0.07600
C2171       C  0.53417917  0.61802200  0.86731850    -0.02200
C2172       C  0.53434627  0.64355796  0.84265287    -0.02200
C2173       C  0.50371002  0.65699892  0.83076596     0.07700
C2174       C  0.97298064  0.64347482  0.84203013    -0.02400
Br2175     Br  0.93098722  0.66096908  0.82494934    -0.00900
Br2176     Br  0.93150950  0.59502332  0.87677069    -0.01000
Br2177     Br  0.57636614  0.66002551  0.82477132    -0.01000
Br2178     Br  0.57610543  0.59915205  0.88299342    -0.00900
C2179       C  0.96468746  0.86074135  0.88597273    -0.02100
C2180       C  0.49170038  0.88348171  0.88891473     0.07600
C2181       C  0.51909713  0.88110140  0.86611007    -0.02200
C2182       C  0.52015673  0.85541778  0.84161904    -0.02200
C2183       C  0.49300409  0.83296661  0.83852753     0.07700
C2184       C  0.96521829  0.83571967  0.86066157    -0.02400
Br2185     Br  0.92756097  0.80562036  0.85561033    -0.00900
Br2186     Br  0.92570742  0.86524620  0.91462731    -0.01000
Br2187     Br  0.55924671  0.85047967  0.81267483    -0.01000
Br2188     Br  0.55537086  0.91307467  0.86799047    -0.00900
C2189       C  0.52583700  0.89261528  0.64040121    -0.02100
C2190       C  0.50160936  0.89208117  0.61437742     0.07600
C2191       C  0.97733291  0.86611671  0.61397573    -0.02200
C2192       C  0.97736498  0.84101969  0.63898179    -0.02200
C2193       C  0.50232104  0.84087183  0.66404535     0.07700
C2194       C  0.52661478  0.86666456  0.66465819    -0.02400
Br2195     Br  0.56171312  0.86581886  0.69816135    -0.00900
Br2196     Br  0.55887225  0.92803312  0.64269356    -0.01000
Br2197     Br  0.94262241  0.80705250  0.63937430    -0.01000
Br2198     Br  0.94265094  0.86529497  0.58025803    -0.00900
C2199       C  0.98294430  0.64086908  0.60736229    -0.02100
C2200       C  0.51041810  0.61868365  0.60242421     0.07600
C2201       C  0.54030143  0.62381123  0.62063066    -0.02200
C2202       C  0.54091804  0.64730907  0.64732366    -0.02200
C2203       C  0.51212898  0.66704156  0.65458624     0.06900
C2204       C  0.98355003  0.66458845  0.63380367    -0.02400
Br2205     Br  0.94491757  0.69333035  0.64194599    -0.00900
Br2206     Br  0.94518262  0.64011570  0.57695604    -0.01000
Br2207     Br  0.58121801  0.65288534  0.67360263    -0.01000
Br2208     Br  0.58146647  0.60256305  0.60555601    -0.00900
loop_ 
_geom_bond_atom_site_label_1 
_geom_bond_atom_site_label_2 
_geom_bond_distance 
_geom_bond_site_symmetry_2 
_ccdc_geom_bond_type 
N1            C6   1.353       .  A
N1            C5   1.351       .  A
N1           H33   1.038   1_455  S
N2            C9   1.352       .  A
N2           C10   1.351       .  A
N3            C8   1.354   1_655  A
N3            C7   1.353   1_655  A
N3           H34   1.037       .  S
N4           C11   1.350       .  A
N4           C12   1.349       .  A
C5           C13   1.386       .  A
C5           C21   1.414       .  A
C6           C22   1.417       .  A
C6           C14   1.388       .  A
C7           C15   1.387       .  A
C7           C24   1.416       .  A
C8           C23   1.416   1_455  A
C8           C16   1.387       .  A
C9           C21   1.414       .  A
C9           C17   1.386       .  A
C10          C24   1.414       .  A
C10          C18   1.387   1_455  A
C11          C19   1.386       .  A
C11          C22   1.413   1_655  A
C12          C20   1.387       .  A
C12          C23   1.412       .  A
C13          C14   1.376       .  A
C13          H25   1.082       .  S
C14          H26   1.082       .  S
C15          C16   1.376       .  A
C15          H27   1.082       .  S
C16          H28   1.082       .  S
C17          C18   1.373   1_455  A
C17          H29   1.082   1_455  S
C18          H30   1.082       .  S
C19          C20   1.373       .  A
C19          H31   1.082       .  S
C20          H32   1.082       .  S
C21         C271   1.488       .  S
C22         C261   1.491       .  S
C23         C251   1.489       .  S
C24         C241   1.486       .  S
O35          C46   1.288       .  A
O35        Zr347   2.421   1_554  S
O36          C47   1.293       .  A
O36        Zr346   2.442   1_455  S
O37          C48   1.292       .  A
O37       Zr1699   2.441       .  S
O38          C49   1.291       .  A
O38        Zr595   2.445   1_565  S
O39         C601   1.292       .  A
O39        Zr349   2.446   1_554  S
O40         C600   1.296       .  A
O40        Zr348   2.457       .  S
O41          C47   1.293       .  A
O41         Zr43   2.446       .  S
O42          C46   1.298       .  A
O42        Zr595   2.468       .  S
Zr43       O1693   2.440   1_455  S
Zr43        O590   2.445       .  S
Zr43        O594   2.467       .  S
Zr43         O44   2.337       .  S
Zr43       O1701   2.343   1_455  S
Zr43        O605   2.335       .  S
Zr43       O1155   2.348   1_455  S
O44        Zr346   2.342   1_455  S
O44        Zr349   2.341   1_554  S
O45       Zr1699   2.343       .  S
O45       Zr1451   2.342   1_554  S
O45        Zr900   2.345       .  S
C46         C268   1.478       .  S
C47         C258   1.486       .  S
C48         C231   1.481       .  S
C48         O592   1.296       .  A
C49         C218   1.507       .  S
C49         O591   1.292       .  A
H50          O51   0.966       .  S
O51       Zr1147   2.348       .  S
O51       Zr1450   2.336       .  S
O51        Zr348   2.340       .  S
H52          O53   0.965       .  S
O53        Zr595   2.335       .  S
O53        Zr347   2.347   1_554  S
O53        Zr901   2.343   1_544  S
O54          C77   1.295       .  A
O54         Zr70   2.458       .  S
O55          C78   1.293       .  A
O55         Zr71   2.448       .  S
O56          C79   1.292       .  A
O56         Zr72   2.451       .  S
O57          C80   1.296       .  A
O57         Zr73   2.457       .  S
O58          C81   1.297       .  A
O58        Zr625   2.466   1_545  S
O59          C82   1.291       .  A
O59        Zr624   2.430       .  S
O60          C83   1.294       .  A
O60       Zr1178   2.448       .  S
O61          C84   1.292       .  A
O61         Zr74   2.443   1_455  S
O62          C83   1.293       .  A
O62         Zr72   2.446       .  S
O63          C84   1.293       .  A
O63         Zr73   2.444       .  S
O64          C79   1.287       .  A
O64       Zr1174   2.431       .  S
O65          C82   1.295       .  A
O65       Zr1175   2.454       .  S
O66          C81   1.290       .  A
O66         Zr71   2.433       .  S
O67          C80   1.289       .  A
O67         Zr70   2.422   1_455  S
O68          C77   1.290       .  A
O68         Zr74   2.431       .  S
O69          C78   1.290       .  A
O69        Zr626   2.433   1_445  S
Zr70        O312   2.442   1_655  S
Zr70       O1168   2.431       .  S
Zr70         O88   2.340   1_655  S
Zr70        O320   2.342   1_655  S
Zr70       O1431   2.336       .  S
Zr70       O1180   2.337       .  S
Zr71        O311   2.421       .  S
Zr71       O1169   2.454   1_455  S
Zr71         O75   2.343       .  S
Zr71       O1425   2.342   1_455  S
Zr71        O329   2.347       .  S
Zr71       O1190   2.338   1_455  S
Zr72        O316   2.457       .  S
Zr72        O611   2.431       .  S
Zr72         O76   2.344       .  S
Zr72        O873   2.345       .  S
Zr72        O327   2.340       .  S
Zr72        O638   2.353       .  S
Zr73        O315   2.446       .  S
Zr73        O610   2.466       .  S
Zr73         O88   2.348       .  S
Zr73        O320   2.341       .  S
Zr73        O881   2.343       .  S
Zr73        O627   2.346       .  S
Zr74       O1164   2.448       .  S
Zr74        O621   2.433   1_655  S
Zr74         O88   2.342   1_655  S
Zr74        O627   2.343   1_655  S
Zr74       O1180   2.345       .  S
Zr74       O1742   2.345       .  S
O75        Zr625   2.346   1_545  S
O75        Zr626   2.343   1_445  S
O76       Zr1174   2.337       .  S
O76       Zr1178   2.345       .  S
C77         C248   1.481       .  S
C78         C238   1.473       .  S
C79         C158   1.507       .  S
C80         C181   1.474       .  S
C81         C188   1.494       .  S
C82         C171   1.488       .  S
C83         C198   1.481       .  S
C84         C208   1.491       .  S
H85          O86   0.968       .  S
O86       Zr1175   2.338       .  S
O86        Zr624   2.353       .  S
O86       Zr1730   2.345   1_545  S
H87          O88   0.966       .  S
N89          C94   1.354   1_565  A
N89          C93   1.355   1_565  A
N89         H121   1.039       .  S
N90          C97   1.350       .  A
N90          C98   1.350       .  A
N91          C96   1.348       .  A
N91          C95   1.351       .  A
N91         H122   1.040   1_545  S
N92          C99   1.353       .  A
N92         C100   1.354       .  A
C93         C101   1.386       .  A
C93         C109   1.419   1_545  A
C94         C110   1.419       .  A
C94         C102   1.388       .  A
C95         C103   1.389       .  A
C95         C112   1.414   1_545  A
C96         C111   1.407       .  A
C96         C104   1.385       .  A
C97         C109   1.414       .  A
C97         C105   1.387       .  A
C98         C112   1.416       .  A
C98         C106   1.387       .  A
C99         C107   1.388       .  A
C99         C110   1.421       .  A
C100        C108   1.384       .  A
C100        C111   1.414       .  A
C101        C102   1.375       .  A
C101        H113   1.082       .  S
C102        H114   1.081       .  S
C103        C104   1.378       .  A
C103        H115   1.082       .  S
C104        H116   1.083       .  S
C105        C106   1.377       .  A
C105        H117   1.082       .  S
C106        H118   1.082       .  S
C107        C108   1.372       .  A
C107        H119   1.081   1_545  S
C108        H120   1.082       .  S
C109        C211   1.497       .  S
C110        C201   1.498       .  S
C111        C228   1.489       .  S
C112        C221   1.495       .  S
N123        C128   1.352       .  A
N123        C127   1.352       .  A
N123        H155   1.041       .  S
N124        C131   1.350       .  A
N124        C132   1.350       .  A
N125        C130   1.353       .  A
N125        C129   1.352       .  A
N125        H156   1.042       .  S
N126        C133   1.350       .  A
N126        C134   1.350       .  A
C127        C135   1.387       .  A
C127        C143   1.416       .  A
C128        C144   1.415       .  A
C128        C136   1.387       .  A
C129        C137   1.385       .  A
C129        C146   1.413       .  A
C130        C145   1.420       .  A
C130        C138   1.389       .  A
C131        C143   1.414       .  A
C131        C139   1.387       .  A
C132        C146   1.411       .  A
C132        C140   1.386       .  A
C133        C141   1.385       .  A
C133        C144   1.412       .  A
C134        C142   1.389       .  A
C134        C145   1.418       .  A
C135        C136   1.379       .  A
C135        H147   1.082       .  S
C136        H148   1.082       .  S
C137        C138   1.381       .  A
C137        H149   1.082       .  S
C138        H150   1.082       .  S
C139        C140   1.375       .  A
C139        H151   1.082       .  S
C140        H152   1.082       .  S
C141        C142   1.380       .  A
C141        H153   1.082       .  S
C142        H154   1.082       .  S
C143        C191   1.497       .  S
C144        C168   1.492       .  S
C145        C161   1.505       .  S
C146        C178   1.490       .  S
C157        C158   1.427       .  A
C157        C162   1.403       .  A
C157       Br164   1.942       .  S
C158        C435   1.426       .  A
C159        C160   1.413       .  A
C159        C434   1.426       .  A
C159       Br166   1.935       .  S
C160        C437   1.414       .  A
C160       Br165   1.935       .  S
C161        C162   1.411       .  A
C161        C436   1.414       .  A
C162       Br163   1.935       .  S
C167        C172   1.407       .  A
C167        C444   1.406       .  A
C167       Br174   1.931       .  S
C168        C169   1.410       .  A
C168        C443   1.406       .  A
C169        C170   1.409       .  A
C169       Br176   1.929       .  S
C170        C171   1.413       .  A
C170       Br175   1.927       .  S
C171        C448   1.417       .  A
C172        C447   1.417       .  A
C172       Br173   1.925       .  S
C177        C178   1.412       .  A
C177        C182   1.408       .  A
C177       Br184   1.928       .  S
C178        C455   1.411       .  A
C179        C180   1.406       .  A
C179        C454   1.411       .  A
C179       Br186   1.929       .  S
C180        C457   1.406       .  A
C180       Br185   1.926       .  S
C181        C182   1.408       .  A
C181        C456   1.406       .  A
C182       Br183   1.928       .  S
C187        C192   1.409       .  A
C187        C464   1.417   1_554  A
C187       Br194   1.926       .  S
C188        C189   1.419       .  A
C188        C463   1.417       .  A
C189        C190   1.408       .  A
C189       Br196   1.929       .  S
C190        C191   1.410       .  A
C190       Br195   1.934       .  S
C191        C468   1.410       .  A
C192        C467   1.410       .  A
C192       Br193   1.934       .  S
C197        C202   1.411       .  A
C197        C750   1.412       .  A
C197       Br204   1.930       .  S
C198        C199   1.408       .  A
C198        C749   1.412       .  A
C199        C200   1.404       .  A
C199       Br206   1.920       .  S
C200        C753   1.411       .  A
C200       Br205   1.932       .  S
C201        C202   1.414       .  A
C201        C752   1.411   1_545  A
C202       Br203   1.929       .  S
C207        C212   1.405       .  A
C207        C760   1.415   1_545  A
C207       Br214   1.932       .  S
C208        C209   1.418       .  A
C208        C759   1.415       .  A
C209        C210   1.411       .  A
C209       Br216   1.932       .  S
C210        C763   1.411       .  A
C210       Br215   1.932       .  S
C211        C212   1.410   1_565  A
C211        C762   1.411       .  A
C212       Br213   1.929       .  S
C217        C222   1.413       .  A
C217        C770   1.429       .  A
C217       Br224   1.936       .  S
C218        C219   1.428   1_565  A
C218        C769   1.428       .  A
C219        C220   1.403       .  A
C219       Br226   1.938       .  S
C220        C221   1.404   1_545  A
C220       Br225   1.936       .  S
C221        C774   1.410       .  A
C222        C773   1.410       .  A
C222       Br223   1.936       .  S
C227        C228   1.408       .  A
C227        C232   1.409       .  A
C227       Br234   1.928       .  S
C228        C781   1.410   1_545  A
C229        C230   1.406       .  A
C229        C780   1.410       .  A
C229       Br236   1.930       .  S
C230        C783   1.407       .  A
C230       Br235   1.925       .  S
C231        C232   1.411       .  A
C231        C782   1.407   1_545  A
C232       Br233   1.924       .  S
C237        C242   1.403       .  A
C237       C1342   1.406       .  A
C237       Br244   1.918       .  S
C238        C239   1.410       .  A
C238       C1341   1.406   1_455  A
C239        C240   1.409       .  A
C239       Br246   1.929       .  S
C240        C241   1.410       .  A
C240       Br245   1.927       .  S
C241       C1346   1.407   1_455  A
C242       C1345   1.407       .  A
C242       Br243   1.931       .  S
C247        C252   1.408       .  A
C247       C1352   1.411       .  A
C247       Br254   1.921       .  S
C248        C249   1.412   1_655  A
C248       C1351   1.411       .  A
C249        C250   1.405       .  A
C249       Br256   1.927       .  S
C250        C251   1.409   1_455  A
C250       Br255   1.932       .  S
C251       C1356   1.408       .  A
C252       C1355   1.408       .  A
C252       Br253   1.931       .  S
C257        C258   1.415       .  A
C257        C262   1.410       .  A
C257       Br264   1.931       .  S
C258       C1363   1.415   1_455  A
C259        C260   1.405       .  A
C259       C1362   1.415       .  A
C259       Br266   1.925       .  S
C260       C1365   1.408       .  A
C260       Br265   1.935       .  S
C261        C262   1.411       .  A
C261       C1364   1.408   1_455  A
C262       Br263   1.931       .  S
C267        C272   1.406       .  A
C267       C1372   1.410       .  A
C267       Br274   1.930       .  S
C268        C269   1.409       .  A
C268       C1371   1.410   1_455  A
C269        C270   1.408       .  A
C269       Br276   1.926       .  S
C270        C271   1.409       .  A
C270       Br275   1.929       .  S
C271       C1376   1.411   1_455  A
C272       C1375   1.411       .  A
C272       Br273   1.931       .  S
N277        C282   1.353       .  A
N277        C281   1.351       .  A
N277        H309   1.038   1_455  S
N278        C285   1.352       .  A
N278        C286   1.351       .  A
N279        C284   1.354   1_655  A
N279        C283   1.353   1_655  A
N279        H310   1.037       .  S
N280        C287   1.350       .  A
N280        C288   1.349       .  A
C281        C289   1.386       .  A
C281        C297   1.414       .  A
C282        C298   1.417       .  A
C282        C290   1.388       .  A
C283        C291   1.387       .  A
C283        C300   1.416       .  A
C284        C299   1.416   1_455  A
C284        C292   1.387       .  A
C285        C297   1.414       .  A
C285        C293   1.386       .  A
C286        C300   1.414       .  A
C286        C294   1.387   1_455  A
C287        C295   1.386       .  A
C287        C298   1.413   1_655  A
C288        C296   1.387       .  A
C288        C299   1.412       .  A
C289        C290   1.376       .  A
C289        H301   1.082       .  S
C290        H302   1.082       .  S
C291        C292   1.376       .  A
C291        H303   1.082       .  S
C292        H304   1.082       .  S
C293        C294   1.373   1_455  A
C293        H305   1.082   1_455  S
C294        H306   1.082       .  S
C295        C296   1.373       .  A
C295        H307   1.082       .  S
C296        H308   1.082       .  S
C297        C547   1.488       .  S
C298        C537   1.491       .  S
C299        C527   1.489       .  S
C300        C517   1.486       .  S
O311        C322   1.288       .  A
O312        C323   1.293       .  A
O313        C324   1.292       .  A
O313      Zr1975   2.441       .  S
O314        C325   1.291       .  A
O314       Zr871   2.445   1_565  S
O315        C877   1.292       .  A
O316        C876   1.296       .  A
O317        C323   1.293       .  A
O317       Zr319   2.446       .  S
O318        C322   1.298       .  A
O318       Zr871   2.468       .  S
Zr319      O1969   2.440   1_455  S
Zr319       O866   2.445       .  S
Zr319       O870   2.467       .  S
Zr319       O320   2.337       .  S
Zr319      O1977   2.343   1_455  S
Zr319       O881   2.335       .  S
Zr319      O1431   2.348   1_455  S
O321      Zr1975   2.343       .  S
O321      Zr1175   2.342       .  S
O321       Zr624   2.345       .  S
C322        C544   1.478       .  S
C323        C534   1.486       .  S
C324        C507   1.481       .  S
C324        O868   1.296       .  A
C325        C494   1.507       .  S
C325        O867   1.292       .  A
H326        O327   0.966       .  S
O327      Zr1423   2.348       .  S
O327      Zr1174   2.336       .  S
H328        O329   0.965       .  S
O329       Zr871   2.335       .  S
O329       Zr625   2.343   1_545  S
O330        C353   1.295       .  A
O330       Zr346   2.458   1_556  S
O331        C354   1.293       .  A
O331       Zr347   2.448       .  S
O332        C355   1.292       .  A
O332       Zr348   2.451       .  S
O333        C356   1.296       .  A
O333       Zr349   2.457       .  S
O334        C357   1.297       .  A
O334       Zr901   2.466   1_545  S
O335        C358   1.291       .  A
O335       Zr900   2.430       .  S
O336        C359   1.294       .  A
O336      Zr1454   2.448       .  S
O337        C360   1.292       .  A
O337       Zr350   2.443   1_455  S
O338        C359   1.293       .  A
O338       Zr348   2.446   1_556  S
O339        C360   1.293       .  A
O339       Zr349   2.444       .  S
O340        C355   1.287       .  A
O340      Zr1450   2.431       .  S
O341        C358   1.295   1_556  A
O341      Zr1451   2.454       .  S
O342        C357   1.290       .  A
O342       Zr347   2.433       .  S
O343        C356   1.289   1_554  A
O343       Zr346   2.422   1_455  S
O344        C353   1.290       .  A
O344       Zr350   2.431       .  S
O345        C354   1.290       .  A
O345       Zr902   2.433   1_445  S
Zr346      O1444   2.431       .  S
Zr346      O1155   2.336       .  S
Zr346      O1456   2.337   1_554  S
Zr346       O364   2.340   1_654  S
Zr347      O1445   2.454   1_455  S
Zr347      O1149   2.342   1_456  S
Zr347       O351   2.343       .  S
Zr347      O1466   2.338   1_455  S
Zr348       O887   2.431       .  S
Zr348       O597   2.345       .  S
Zr348       O352   2.344   1_554  S
Zr348       O914   2.353   1_554  S
Zr349       O886   2.466       .  S
Zr349       O605   2.343   1_556  S
Zr349       O903   2.346       .  S
Zr349       O364   2.348       .  S
Zr350      O1440   2.448       .  S
Zr350       O897   2.433   1_655  S
Zr350       O903   2.343   1_655  S
Zr350      O1456   2.345       .  S
Zr350       O364   2.342   1_655  S
Zr350      O2018   2.345       .  S
O351       Zr901   2.346   1_545  S
O351       Zr902   2.343   1_445  S
O352      Zr1450   2.337   1_556  S
O352      Zr1454   2.345       .  S
C353        C524   1.481       .  S
C354        C514   1.473       .  S
C355        C434   1.507       .  S
C356        C457   1.474   1_556  S
C357        C464   1.494       .  S
C358        C447   1.488       .  S
C359        C474   1.481       .  S
C360        C484   1.491       .  S
H361        O362   0.968       .  S
O362      Zr1451   2.338       .  S
O362       Zr900   2.353   1_556  S
O362      Zr2006   2.345   1_545  S
H363        O364   0.966       .  S
N365        C370   1.354   1_565  A
N365        C369   1.355   1_565  A
N365        H397   1.039       .  S
N366        C373   1.350       .  A
N366        C374   1.350       .  A
N367        C372   1.348       .  A
N367        C371   1.351       .  A
N367        H398   1.040   1_545  S
N368        C375   1.353       .  A
N368        C376   1.354       .  A
C369        C377   1.386       .  A
C369        C385   1.419   1_545  A
C370        C386   1.419       .  A
C370        C378   1.388       .  A
C371        C379   1.389       .  A
C371        C388   1.414   1_545  A
C372        C387   1.407       .  A
C372        C380   1.385       .  A
C373        C385   1.414       .  A
C373        C381   1.387       .  A
C374        C388   1.416       .  A
C374        C382   1.387       .  A
C375        C383   1.388       .  A
C375        C386   1.421       .  A
C376        C384   1.384       .  A
C376        C387   1.414       .  A
C377        C378   1.375       .  A
C377        H389   1.082       .  S
C378        H390   1.081       .  S
C379        C380   1.378       .  A
C379        H391   1.082       .  S
C380        H392   1.083       .  S
C381        C382   1.377       .  A
C381        H393   1.082       .  S
C382        H394   1.082       .  S
C383        C384   1.372       .  A
C383        H395   1.081   1_545  S
C384        H396   1.082       .  S
C385        C487   1.497       .  S
C386        C477   1.498       .  S
C387        C504   1.489       .  S
C388        C497   1.495       .  S
N399        C404   1.352       .  A
N399        C403   1.352       .  A
N399        H431   1.041       .  S
N400        C407   1.350       .  A
N400        C408   1.350       .  A
N401        C406   1.353       .  A
N401        C405   1.352       .  A
N401        H432   1.042       .  S
N402        C409   1.350       .  A
N402        C410   1.350       .  A
C403        C411   1.387   1_554  A
C403        C419   1.416       .  A
C404        C420   1.415       .  A
C404        C412   1.387   1_554  A
C405        C413   1.385   1_554  A
C405        C422   1.413       .  A
C406        C421   1.420       .  A
C406        C414   1.389   1_554  A
C407        C419   1.414       .  A
C407        C415   1.387       .  A
C408        C422   1.411       .  A
C408        C416   1.386       .  A
C409        C417   1.385       .  A
C409        C420   1.412       .  A
C410        C418   1.389       .  A
C410        C421   1.418       .  A
C411        C412   1.379       .  A
C411        H423   1.082       .  S
C412        H424   1.082       .  S
C413        C414   1.381       .  A
C413        H425   1.082       .  S
C414        H426   1.082       .  S
C415        C416   1.375       .  A
C415        H427   1.082       .  S
C416        H428   1.082       .  S
C417        C418   1.380       .  A
C417        H429   1.082       .  S
C418        H430   1.082       .  S
C419        C467   1.497       .  S
C420        C444   1.492       .  S
C421        C437   1.505       .  S
C422        C454   1.490       .  S
C433        C434   1.427       .  A
C433        C438   1.403   1_554  A
C433       Br440   1.942   1_554  S
C435        C436   1.413       .  A
C435       Br442   1.935       .  S
C436       Br441   1.935       .  S
C437        C438   1.411   1_554  A
C438       Br439   1.935       .  S
C443        C448   1.407       .  A
C443       Br450   1.931       .  S
C444        C445   1.410   1_554  A
C445        C446   1.409       .  A
C445       Br452   1.929       .  S
C446        C447   1.413   1_556  A
C446       Br451   1.927       .  S
C448       Br449   1.925       .  S
C453        C454   1.412   1_556  A
C453        C458   1.408       .  A
C453       Br460   1.928       .  S
C455        C456   1.406       .  A
C455       Br462   1.929       .  S
C456       Br461   1.926       .  S
C457        C458   1.408   1_554  A
C458       Br459   1.928       .  S
C463        C468   1.409       .  A
C463       Br470   1.926       .  S
C464        C465   1.419       .  A
C465        C466   1.408       .  A
C465       Br472   1.929       .  S
C466        C467   1.410   1_556  A
C466       Br471   1.934       .  S
C468       Br469   1.934       .  S
C473       C1026   1.412       .  A
C473        C478   1.411       .  A
C473       Br480   1.930       .  S
C474       C1025   1.412       .  A
C474        C475   1.408       .  A
C475        C476   1.404       .  A
C475       Br482   1.920       .  S
C476       C1029   1.411       .  A
C476       Br481   1.932       .  S
C477       C1028   1.411   1_545  A
C477        C478   1.414       .  A
C478       Br479   1.929       .  S
C483       C1036   1.415   1_545  A
C483        C488   1.405       .  A
C483       Br490   1.932       .  S
C484       C1035   1.415       .  A
C484        C485   1.418       .  A
C485        C486   1.411       .  A
C485       Br492   1.932       .  S
C486       C1039   1.411       .  A
C486       Br491   1.932       .  S
C487       C1038   1.411       .  A
C487        C488   1.410   1_565  A
C488       Br489   1.929       .  S
C493       C1046   1.429       .  A
C493        C498   1.413       .  A
C493       Br500   1.936       .  S
C494       C1045   1.428       .  A
C494        C495   1.428   1_565  A
C495        C496   1.403       .  A
C495       Br502   1.938       .  S
C496        C497   1.404   1_545  A
C496       Br501   1.936       .  S
C497       C1050   1.410       .  A
C498       C1049   1.410       .  A
C498       Br499   1.936       .  S
C503        C504   1.408       .  A
C503        C508   1.409       .  A
C503       Br510   1.928       .  S
C504       C1057   1.410   1_545  A
C505       C1056   1.410       .  A
C505        C506   1.406       .  A
C505       Br512   1.930       .  S
C506       C1059   1.407       .  A
C506       Br511   1.925       .  S
C507       C1058   1.407   1_545  A
C507        C508   1.411       .  A
C508       Br509   1.924       .  S
C513       C1618   1.406       .  A
C513        C518   1.403       .  A
C513       Br520   1.918       .  S
C514       C1617   1.406   1_455  A
C514        C515   1.410       .  A
C515        C516   1.409       .  A
C515       Br522   1.929       .  S
C516        C517   1.410       .  A
C516       Br521   1.927       .  S
C517       C1622   1.407   1_455  A
C518       C1621   1.407       .  A
C518       Br519   1.931       .  S
C523       C1628   1.411       .  A
C523        C528   1.408       .  A
C523       Br530   1.921       .  S
C524       C1627   1.411       .  A
C524        C525   1.412   1_655  A
C525        C526   1.405       .  A
C525       Br532   1.927       .  S
C526        C527   1.409   1_455  A
C526       Br531   1.932       .  S
C527       C1632   1.408       .  A
C528       C1631   1.408       .  A
C528       Br529   1.931       .  S
C533        C534   1.415       .  A
C533        C538   1.410       .  A
C533       Br540   1.931       .  S
C534       C1639   1.415   1_455  A
C535       C1638   1.415       .  A
C535        C536   1.405       .  A
C535       Br542   1.925       .  S
C536       C1641   1.408       .  A
C536       Br541   1.935       .  S
C537       C1640   1.408   1_455  A
C537        C538   1.411       .  A
C538       Br539   1.931       .  S
C543       C1648   1.410       .  A
C543        C548   1.406       .  A
C543       Br550   1.930       .  S
C544       C1647   1.410   1_455  A
C544        C545   1.409       .  A
C545        C546   1.408       .  A
C545       Br552   1.926       .  S
C546        C547   1.409       .  A
C546       Br551   1.929       .  S
C547       C1652   1.411   1_455  A
C548       C1651   1.411       .  A
C548       Br549   1.931       .  S
N553        C558   1.353       .  A
N553        C557   1.352       .  A
N553        H585   1.037   1_455  S
N554        C561   1.352       .  A
N554        C562   1.351       .  A
N555        C560   1.354   1_655  A
N555        C559   1.353   1_655  A
N555        H586   1.037       .  S
N556        C563   1.350       .  A
N556        C564   1.349       .  A
C557        C565   1.386       .  A
C557        C573   1.414       .  A
C558        C574   1.417       .  A
C558        C566   1.388       .  A
C559        C567   1.387       .  A
C559        C576   1.416       .  A
C560        C575   1.416   1_455  A
C560        C568   1.387       .  A
C561        C573   1.414       .  A
C561        C569   1.386       .  A
C562        C576   1.414       .  A
C562        C570   1.387   1_455  A
C563        C571   1.386       .  A
C563        C574   1.413   1_655  A
C564        C572   1.387       .  A
C564        C575   1.412       .  A
C565        C566   1.376       .  A
C565        H577   1.082       .  S
C566        H578   1.082       .  S
C567        C568   1.376       .  A
C567        H579   1.082       .  S
C568        H580   1.082       .  S
C569        C570   1.373   1_455  A
C569        H581   1.082   1_455  S
C570        H582   1.082       .  S
C571        C572   1.373       .  A
C571        H583   1.082       .  S
C572        H584   1.082       .  S
C573        C823   1.488       .  S
C574        C813   1.491       .  S
C575        C803   1.489       .  S
C576        C793   1.486       .  S
O587        C598   1.288       .  A
O587       Zr899   2.421   1_554  S
O588        C599   1.293       .  A
O588       Zr898   2.441   1_455  S
O589        C600   1.292       .  A
O589      Zr1147   2.440       .  S
O590        C601   1.291       .  A
O591       Zr901   2.446   1_554  S
O592       Zr900   2.457       .  S
O593        C599   1.293       .  A
O593       Zr595   2.447   1_565  S
O594        C598   1.298       .  A
Zr595      O1141   2.441   1_455  S
Zr595       O596   2.337   1_545  S
Zr595      O1149   2.343   1_455  S
Zr595      O1707   2.348   1_445  S
O596       Zr898   2.343   1_455  S
O596       Zr901   2.342   1_554  S
O597      Zr1147   2.343       .  S
O597      Zr2003   2.343   1_554  S
C598        C820   1.477       .  S
C599        C810   1.487       .  S
C600        C783   1.481       .  S
C601        C770   1.507       .  S
H602        O603   0.966       .  S
O603      Zr1699   2.348   1_565  S
O603      Zr2002   2.337       .  S
O603       Zr900   2.340   1_565  S
H604        O605   0.964       .  S
O605       Zr899   2.347   1_554  S
O606        C629   1.295       .  A
O606       Zr622   2.458       .  S
O607        C630   1.293       .  A
O607       Zr623   2.448       .  S
O608        C631   1.292       .  A
O608       Zr624   2.451   1_565  S
O609        C632   1.296       .  A
O609       Zr625   2.457       .  S
O610        C633   1.297       .  A
O611        C634   1.291       .  A
O612        C635   1.295   1_565  A
O612      Zr1730   2.449       .  S
O613        C636   1.292       .  A
O613       Zr626   2.443   1_455  S
O614        C635   1.293       .  A
O614       Zr624   2.446       .  S
O615        C636   1.293       .  A
O615       Zr625   2.444       .  S
O616        C631   1.287       .  A
O616      Zr1726   2.431       .  S
O617        C634   1.295       .  A
O617      Zr1727   2.455       .  S
O618        C633   1.290       .  A
O618       Zr623   2.434       .  S
O619        C632   1.289       .  A
O619       Zr622   2.422   1_455  S
O620        C629   1.290       .  A
O620       Zr626   2.430       .  S
O621        C630   1.290       .  A
Zr622       O864   2.441   1_655  S
Zr622      O1720   2.431       .  S
Zr622       O872   2.343   1_655  S
Zr622      O1983   2.337       .  S
Zr622      O1732   2.337       .  S
Zr622       O640   2.340   1_655  S
Zr623       O863   2.421       .  S
Zr623      O1721   2.455   1_455  S
Zr623      O1977   2.343   1_455  S
Zr623       O881   2.347       .  S
Zr623       O627   2.343       .  S
Zr623      O1742   2.338   1_455  S
Zr624       O868   2.457       .  S
Zr624       O879   2.340   1_545  S
Zr624       O628   2.344   1_545  S
Zr625       O867   2.446       .  S
Zr625       O872   2.342       .  S
Zr625       O640   2.348       .  S
Zr626      O1716   2.449       .  S
Zr626      O1732   2.344       .  S
Zr626       O640   2.343   1_655  S
Zr626      O1190   2.345   1_565  S
O628      Zr1726   2.337       .  S
O628      Zr1730   2.344       .  S
C629        C800   1.480       .  S
C630        C790   1.473       .  S
C631        C710   1.507       .  S
C632        C733   1.474       .  S
C633        C740   1.494       .  S
C634        C723   1.489       .  S
C635        C750   1.481       .  S
C636        C760   1.491       .  S
H637        O638   0.966       .  S
O638      Zr1727   2.338       .  S
O638      Zr1178   2.345       .  S
H639        O640   0.968       .  S
N641        C646   1.354       .  A
N641        C645   1.355       .  A
N641        H673   1.039       .  S
N642        C649   1.350       .  A
N642        C650   1.350       .  A
N643        C648   1.348       .  A
N643        C647   1.351       .  A
N643        H674   1.040       .  S
N644        C651   1.353       .  A
N644        C652   1.354       .  A
C645        C653   1.386       .  A
C645        C661   1.419       .  A
C646        C662   1.419       .  A
C646        C654   1.388       .  A
C647        C655   1.389       .  A
C647        C664   1.414       .  A
C648        C663   1.407       .  A
C648        C656   1.385       .  A
C649        C661   1.414       .  A
C649        C657   1.386       .  A
C650        C664   1.416       .  A
C650        C658   1.387       .  A
C651        C659   1.388       .  A
C651        C662   1.421       .  A
C652        C660   1.384       .  A
C652        C663   1.414       .  A
C653        C654   1.375       .  A
C653        H665   1.082       .  S
C654        H666   1.081       .  S
C655        C656   1.378       .  A
C655        H667   1.082       .  S
C656        H668   1.083       .  S
C657        C658   1.377       .  A
C657        H669   1.082       .  S
C658        H670   1.082       .  S
C659        C660   1.372       .  A
C659        H671   1.081       .  S
C660        H672   1.082       .  S
C661        C763   1.497       .  S
C662        C753   1.497       .  S
C663        C780   1.489       .  S
C664        C773   1.495       .  S
N675        C680   1.352       .  A
N675        C679   1.353       .  A
N675        H707   1.041       .  S
N676        C683   1.350       .  A
N676        C684   1.350       .  A
N677        C682   1.353       .  A
N677        C681   1.352       .  A
N677        H708   1.042       .  S
N678        C685   1.350       .  A
N678        C686   1.350       .  A
C679        C687   1.387       .  A
C679        C695   1.416       .  A
C680        C696   1.415       .  A
C680        C688   1.387       .  A
C681        C689   1.385       .  A
C681        C698   1.413       .  A
C682        C697   1.420       .  A
C682        C690   1.389       .  A
C683        C695   1.414       .  A
C683        C691   1.387       .  A
C684        C698   1.411       .  A
C684        C692   1.386       .  A
C685        C693   1.385       .  A
C685        C696   1.412       .  A
C686        C694   1.389       .  A
C686        C697   1.418       .  A
C687        C688   1.379       .  A
C687        H699   1.082       .  S
C688        H700   1.082       .  S
C689        C690   1.381       .  A
C689        H701   1.082       .  S
C690        H702   1.082       .  S
C691        C692   1.375       .  A
C691        H703   1.082       .  S
C692        H704   1.082       .  S
C693        C694   1.380       .  A
C693        H705   1.082       .  S
C694        H706   1.082       .  S
C695        C743   1.497       .  S
C696        C720   1.492       .  S
C697        C713   1.505       .  S
C698        C730   1.490       .  S
C709        C710   1.427       .  A
C709        C714   1.403       .  A
C709       Br716   1.942       .  S
C710        C987   1.426       .  A
C711        C986   1.426       .  A
C711        C712   1.413       .  A
C711       Br718   1.935       .  S
C712        C989   1.414       .  A
C712       Br717   1.935       .  S
C713        C988   1.414       .  A
C713        C714   1.411       .  A
C714       Br715   1.935       .  S
C719        C996   1.406       .  A
C719        C724   1.407       .  A
C719       Br726   1.930       .  S
C720        C995   1.406       .  A
C720        C721   1.410       .  A
C721        C722   1.409       .  A
C721       Br728   1.929       .  S
C722        C723   1.413       .  A
C722       Br727   1.927       .  S
C723       C1000   1.417       .  A
C724        C999   1.417       .  A
C724       Br725   1.925       .  S
C729        C730   1.412       .  A
C729        C734   1.408       .  A
C729       Br736   1.928       .  S
C730       C1007   1.411       .  A
C731       C1006   1.411       .  A
C731        C732   1.406       .  A
C731       Br738   1.929       .  S
C732       C1009   1.406       .  A
C732       Br737   1.926       .  S
C733       C1008   1.406       .  A
C733        C734   1.408       .  A
C734       Br735   1.928       .  S
C739       C1016   1.417   1_554  A
C739        C744   1.409       .  A
C739       Br746   1.927       .  S
C740       C1015   1.417       .  A
C740        C741   1.419       .  A
C741        C742   1.408       .  A
C741       Br748   1.929       .  S
C742        C743   1.411       .  A
C742       Br747   1.934       .  S
C743       C1020   1.410       .  A
C744       C1019   1.410       .  A
C744       Br745   1.934       .  S
C749        C754   1.411       .  A
C749       Br756   1.930       .  S
C750        C751   1.408   1_545  A
C751        C752   1.404       .  A
C751       Br758   1.920       .  S
C752       Br757   1.931       .  S
C753        C754   1.414       .  A
C754       Br755   1.929       .  S
C759        C764   1.405       .  A
C759       Br766   1.932       .  S
C760        C761   1.418       .  A
C761        C762   1.411       .  A
C761       Br768   1.932       .  S
C762       Br767   1.932       .  S
C763        C764   1.410       .  A
C764       Br765   1.929       .  S
C769        C774   1.413       .  A
C769       Br776   1.936       .  S
C770        C771   1.428       .  A
C771        C772   1.403       .  A
C771       Br778   1.938       .  S
C772        C773   1.404       .  A
C772       Br777   1.936       .  S
C774       Br775   1.936       .  S
C779        C780   1.408       .  A
C779        C784   1.409       .  A
C779       Br786   1.928       .  S
C781        C782   1.406       .  A
C781       Br788   1.930       .  S
C782       Br787   1.925       .  S
C783        C784   1.411       .  A
C784       Br785   1.924       .  S
C789       C1894   1.406       .  A
C789        C794   1.403       .  A
C789       Br796   1.918       .  S
C790       C1893   1.406   1_455  A
C790        C791   1.409       .  A
C791        C792   1.409       .  A
C791       Br798   1.929       .  S
C792        C793   1.410       .  A
C792       Br797   1.927       .  S
C793       C1898   1.407   1_455  A
C794       C1897   1.407       .  A
C794       Br795   1.930       .  S
C799       C1904   1.411       .  A
C799        C804   1.408       .  A
C799       Br806   1.921       .  S
C800       C1903   1.411       .  A
C800        C801   1.412   1_655  A
C801        C802   1.405       .  A
C801       Br808   1.927       .  S
C802        C803   1.409   1_455  A
C802       Br807   1.932       .  S
C803       C1908   1.408       .  A
C804       C1907   1.408       .  A
C804       Br805   1.931       .  S
C809        C810   1.415       .  A
C809        C814   1.410       .  A
C809       Br816   1.931       .  S
C810       C1915   1.415   1_455  A
C811       C1914   1.415       .  A
C811        C812   1.406       .  A
C811       Br818   1.926       .  S
C812       C1917   1.408       .  A
C812       Br817   1.935       .  S
C813       C1916   1.408   1_455  A
C813        C814   1.411       .  A
C814       Br815   1.931       .  S
C819       C1924   1.410       .  A
C819        C824   1.406       .  A
C819       Br826   1.930       .  S
C820       C1923   1.410   1_455  A
C820        C821   1.409       .  A
C821        C822   1.408       .  A
C821       Br828   1.926       .  S
C822        C823   1.410       .  A
C822       Br827   1.929       .  S
C823       C1928   1.411   1_455  A
C824       C1927   1.411       .  A
C824       Br825   1.931       .  S
N829        C834   1.353       .  A
N829        C833   1.352       .  A
N829        H861   1.037   1_455  S
N830        C837   1.352       .  A
N830        C838   1.351       .  A
N831        C836   1.354   1_655  A
N831        C835   1.353   1_655  A
N831        H862   1.037       .  S
N832        C839   1.350       .  A
N832        C840   1.349       .  A
C833        C841   1.386       .  A
C833        C849   1.414       .  A
C834        C850   1.417       .  A
C834        C842   1.388       .  A
C835        C843   1.387       .  A
C835        C852   1.416       .  A
C836        C851   1.416   1_455  A
C836        C844   1.387       .  A
C837        C849   1.414       .  A
C837        C845   1.386       .  A
C838        C852   1.414       .  A
C838        C846   1.387   1_455  A
C839        C847   1.386       .  A
C839        C850   1.413   1_655  A
C840        C848   1.387       .  A
C840        C851   1.412       .  A
C841        C842   1.376       .  A
C841        H853   1.082       .  S
C842        H854   1.082       .  S
C843        C844   1.376       .  A
C843        H855   1.082       .  S
C844        H856   1.082       .  S
C845        C846   1.373   1_455  A
C845        H857   1.082   1_455  S
C846        H858   1.082       .  S
C847        C848   1.373       .  A
C847        H859   1.082       .  S
C848        H860   1.082       .  S
C849       C1099   1.488       .  S
C850       C1089   1.491       .  S
C851       C1079   1.489       .  S
C852       C1069   1.486       .  S
O863        C874   1.288       .  A
O864        C875   1.293       .  A
O865        C876   1.292       .  A
O865      Zr1423   2.440       .  S
O866        C877   1.291       .  A
O869        C875   1.293       .  A
O869       Zr871   2.447   1_565  S
O870        C874   1.298       .  A
Zr871      O1417   2.441   1_455  S
Zr871       O872   2.337   1_545  S
Zr871      O1425   2.343   1_455  S
Zr871      O1983   2.348   1_445  S
O873      Zr1423   2.343       .  S
O873      Zr1727   2.343       .  S
C874       C1096   1.477       .  S
C875       C1086   1.487       .  S
C876       C1059   1.481       .  S
C877       C1046   1.507       .  S
H878        O879   0.966       .  S
O879      Zr1975   2.348   1_565  S
O879      Zr1726   2.337       .  S
H880        O881   0.964       .  S
O882        C905   1.295       .  A
O882       Zr898   2.458   1_556  S
O883        C906   1.293       .  A
O883       Zr899   2.448       .  S
O884        C907   1.292       .  A
O884       Zr900   2.451   1_565  S
O885        C908   1.296       .  A
O885       Zr901   2.457       .  S
O886        C909   1.297       .  A
O887        C910   1.291       .  A
O888        C911   1.295   1_565  A
O888      Zr2006   2.449       .  S
O889        C912   1.292       .  A
O889       Zr902   2.443   1_455  S
O890        C911   1.293       .  A
O890       Zr900   2.446   1_556  S
O891        C912   1.293       .  A
O891       Zr901   2.444       .  S
O892        C907   1.287       .  A
O892      Zr2002   2.431       .  S
O893        C910   1.295   1_556  A
O893      Zr2003   2.455       .  S
O894        C909   1.290       .  A
O894       Zr899   2.434       .  S
O895        C908   1.289   1_554  A
O895       Zr898   2.422   1_455  S
O896        C905   1.290       .  A
O896       Zr902   2.430       .  S
O897        C906   1.290       .  A
Zr898      O1996   2.431       .  S
Zr898      O1707   2.337       .  S
Zr898      O2008   2.337   1_554  S
Zr898       O916   2.340   1_654  S
Zr899      O1997   2.455   1_455  S
Zr899      O1701   2.343   1_456  S
Zr899       O903   2.343       .  S
Zr899      O2018   2.338   1_455  S
Zr900       O904   2.344   1_544  S
Zr901       O916   2.348       .  S
Zr902      O1992   2.449       .  S
Zr902      O2008   2.344       .  S
Zr902       O916   2.343   1_655  S
Zr902      O1466   2.345   1_565  S
O904      Zr2002   2.337   1_556  S
O904      Zr2006   2.344       .  S
C905       C1076   1.480       .  S
C906       C1066   1.473       .  S
C907        C986   1.507       .  S
C908       C1009   1.474   1_556  S
C909       C1016   1.494       .  S
C910        C999   1.489       .  S
C911       C1026   1.481       .  S
C912       C1036   1.491       .  S
H913        O914   0.966       .  S
O914      Zr2003   2.338       .  S
O914      Zr1454   2.345       .  S
H915        O916   0.968       .  S
N917        C922   1.354       .  A
N917        C921   1.355       .  A
N917        H949   1.039       .  S
N918        C925   1.350       .  A
N918        C926   1.350       .  A
N919        C924   1.348       .  A
N919        C923   1.351       .  A
N919        H950   1.040       .  S
N920        C927   1.353       .  A
N920        C928   1.354       .  A
C921        C929   1.386       .  A
C921        C937   1.419       .  A
C922        C938   1.419       .  A
C922        C930   1.388       .  A
C923        C931   1.389       .  A
C923        C940   1.414       .  A
C924        C939   1.407       .  A
C924        C932   1.385       .  A
C925        C937   1.414       .  A
C925        C933   1.386       .  A
C926        C940   1.416       .  A
C926        C934   1.387       .  A
C927        C935   1.388       .  A
C927        C938   1.421       .  A
C928        C936   1.384       .  A
C928        C939   1.414       .  A
C929        C930   1.375       .  A
C929        H941   1.082       .  S
C930        H942   1.081       .  S
C931        C932   1.378       .  A
C931        H943   1.082       .  S
C932        H944   1.083       .  S
C933        C934   1.377       .  A
C933        H945   1.082       .  S
C934        H946   1.082       .  S
C935        C936   1.372       .  A
C935        H947   1.081       .  S
C936        H948   1.082       .  S
C937       C1039   1.497       .  S
C938       C1029   1.497       .  S
C939       C1056   1.489       .  S
C940       C1049   1.495       .  S
N951        C956   1.352       .  A
N951        C955   1.353       .  A
N951        H983   1.041       .  S
N952        C959   1.350       .  A
N952        C960   1.350       .  A
N953        C958   1.353       .  A
N953        C957   1.352       .  A
N953        H984   1.042       .  S
N954        C961   1.350       .  A
N954        C962   1.350       .  A
C955        C963   1.387   1_554  A
C955        C971   1.416       .  A
C956        C972   1.415       .  A
C956        C964   1.387   1_554  A
C957        C965   1.385   1_554  A
C957        C974   1.413       .  A
C958        C973   1.420       .  A
C958        C966   1.389   1_554  A
C959        C971   1.414       .  A
C959        C967   1.387       .  A
C960        C974   1.411       .  A
C960        C968   1.386       .  A
C961        C969   1.385       .  A
C961        C972   1.412       .  A
C962        C970   1.389       .  A
C962        C973   1.418       .  A
C963        C964   1.379       .  A
C963        H975   1.082       .  S
C964        H976   1.082       .  S
C965        C966   1.381       .  A
C965        H977   1.082       .  S
C966        H978   1.082       .  S
C967        C968   1.375       .  A
C967        H979   1.082       .  S
C968        H980   1.082       .  S
C969        C970   1.380       .  A
C969        H981   1.082       .  S
C970        H982   1.082       .  S
C971       C1019   1.497       .  S
C972        C996   1.492       .  S
C973        C989   1.505       .  S
C974       C1006   1.490       .  S
C985        C986   1.427       .  A
C985        C990   1.403   1_554  A
C985       Br992   1.942   1_554  S
C987        C988   1.413       .  A
C987       Br994   1.935       .  S
C988       Br993   1.935       .  S
C989        C990   1.411   1_554  A
C990       Br991   1.935       .  S
C995       C1000   1.407       .  A
C995      Br1002   1.930       .  S
C996        C997   1.410   1_554  A
C997        C998   1.409       .  A
C997      Br1004   1.929       .  S
C998        C999   1.413   1_556  A
C998      Br1003   1.927       .  S
C1000     Br1001   1.925       .  S
C1005      C1006   1.412   1_556  A
C1005      C1010   1.408       .  A
C1005     Br1012   1.928       .  S
C1007      C1008   1.406       .  A
C1007     Br1014   1.929       .  S
C1008     Br1013   1.926       .  S
C1009      C1010   1.408   1_554  A
C1010     Br1011   1.928       .  S
C1015      C1020   1.409       .  A
C1015     Br1022   1.927       .  S
C1016      C1017   1.419       .  A
C1017      C1018   1.408       .  A
C1017     Br1024   1.929       .  S
C1018      C1019   1.411   1_556  A
C1018     Br1023   1.934       .  S
C1020     Br1021   1.934       .  S
C1025      C1030   1.411       .  A
C1025     Br1032   1.930       .  S
C1026      C1027   1.408   1_545  A
C1027      C1028   1.404       .  A
C1027     Br1034   1.920       .  S
C1028     Br1033   1.931       .  S
C1029      C1030   1.414       .  A
C1030     Br1031   1.929       .  S
C1035      C1040   1.405       .  A
C1035     Br1042   1.932       .  S
C1036      C1037   1.418       .  A
C1037      C1038   1.411       .  A
C1037     Br1044   1.932       .  S
C1038     Br1043   1.932       .  S
C1039      C1040   1.410       .  A
C1040     Br1041   1.929       .  S
C1045      C1050   1.413       .  A
C1045     Br1052   1.936       .  S
C1046      C1047   1.428       .  A
C1047      C1048   1.403       .  A
C1047     Br1054   1.938       .  S
C1048      C1049   1.404       .  A
C1048     Br1053   1.936       .  S
C1050     Br1051   1.936       .  S
C1055      C1056   1.408       .  A
C1055      C1060   1.409       .  A
C1055     Br1062   1.928       .  S
C1057      C1058   1.406       .  A
C1057     Br1064   1.930       .  S
C1058     Br1063   1.925       .  S
C1059      C1060   1.411       .  A
C1060     Br1061   1.924       .  S
C1065      C2170   1.406       .  A
C1065      C1070   1.403       .  A
C1065     Br1072   1.918       .  S
C1066      C2169   1.406   1_455  A
C1066      C1067   1.409       .  A
C1067      C1068   1.409       .  A
C1067     Br1074   1.929       .  S
C1068      C1069   1.410       .  A
C1068     Br1073   1.927       .  S
C1069      C2174   1.407   1_455  A
C1070      C2173   1.407       .  A
C1070     Br1071   1.930       .  S
C1075      C2180   1.411       .  A
C1075      C1080   1.408       .  A
C1075     Br1082   1.921       .  S
C1076      C2179   1.411       .  A
C1076      C1077   1.412   1_655  A
C1077      C1078   1.405       .  A
C1077     Br1084   1.927       .  S
C1078      C1079   1.409   1_455  A
C1078     Br1083   1.932       .  S
C1079      C2184   1.408       .  A
C1080      C2183   1.408       .  A
C1080     Br1081   1.931       .  S
C1085      C1086   1.415       .  A
C1085      C1090   1.410       .  A
C1085     Br1092   1.931       .  S
C1086      C2191   1.415   1_455  A
C1087      C2190   1.415       .  A
C1087      C1088   1.406       .  A
C1087     Br1094   1.926       .  S
C1088      C2193   1.408       .  A
C1088     Br1093   1.935       .  S
C1089      C2192   1.408   1_455  A
C1089      C1090   1.411       .  A
C1090     Br1091   1.931       .  S
C1095      C2200   1.410       .  A
C1095      C1100   1.406       .  A
C1095     Br1102   1.930       .  S
C1096      C2199   1.410   1_455  A
C1096      C1097   1.409       .  A
C1097      C1098   1.408       .  A
C1097     Br1104   1.926       .  S
C1098      C1099   1.410       .  A
C1098     Br1103   1.929       .  S
C1099      C2204   1.411   1_455  A
C1100      C2203   1.411       .  A
C1100     Br1101   1.931       .  S
N1105      C1110   1.353       .  A
N1105      C1109   1.351       .  A
N1105      H1137   1.038       .  S
N1106      C1113   1.352       .  A
N1106      C1114   1.351       .  A
N1107      C1112   1.354       .  A
N1107      C1111   1.353       .  A
N1107      H1138   1.037       .  S
N1108      C1115   1.350       .  A
N1108      C1116   1.349       .  A
C1109      C1117   1.386       .  A
C1109      C1125   1.414       .  A
C1110      C1126   1.417       .  A
C1110      C1118   1.388       .  A
C1111      C1119   1.387       .  A
C1111      C1128   1.416       .  A
C1112      C1127   1.416       .  A
C1112      C1120   1.387       .  A
C1113      C1125   1.414       .  A
C1113      C1121   1.386       .  A
C1114      C1128   1.414       .  A
C1114      C1122   1.387       .  A
C1115      C1123   1.386       .  A
C1115      C1126   1.413       .  A
C1116      C1124   1.387       .  A
C1116      C1127   1.412       .  A
C1117      C1118   1.376       .  A
C1117      H1129   1.082       .  S
C1118      H1130   1.082       .  S
C1119      C1120   1.376       .  A
C1119      H1131   1.082       .  S
C1120      H1132   1.082       .  S
C1121      C1122   1.373       .  A
C1121      H1133   1.082       .  S
C1122      H1134   1.082       .  S
C1123      C1124   1.373       .  A
C1123      H1135   1.082       .  S
C1124      H1136   1.082       .  S
C1125      C1375   1.488       .  S
C1126      C1365   1.491       .  S
C1127      C1355   1.489       .  S
C1128      C1345   1.486       .  S
O1139      C1150   1.288       .  A
O1139     Zr1451   2.421   1_554  S
O1140      C1151   1.293       .  A
O1140     Zr1450   2.442       .  S
O1141      C1152   1.292       .  A
O1142      C1153   1.291       .  A
O1142     Zr1699   2.445   1_565  S
O1143      C1705   1.292       .  A
O1143     Zr1453   2.446   1_554  S
O1144      C1704   1.296       .  A
O1144     Zr1452   2.457       .  S
O1145      C1151   1.293       .  A
O1145     Zr1147   2.446       .  S
O1146      C1150   1.298       .  A
O1146     Zr1699   2.468       .  S
Zr1147     O1694   2.445       .  S
Zr1147     O1698   2.467       .  S
Zr1147     O1148   2.337       .  S
Zr1147     O1709   2.335       .  S
O1148     Zr1450   2.342       .  S
O1148     Zr1453   2.341   1_554  S
O1149     Zr2004   2.345       .  S
C1150      C1372   1.478       .  S
C1151      C1362   1.486       .  S
C1152      C1335   1.481       .  S
C1152      O1696   1.296       .  A
C1153      C1322   1.507       .  S
C1153      O1695   1.292       .  A
H1154      O1155   0.966       .  S
O1155     Zr1452   2.340       .  S
H1156      O1157   0.965       .  S
O1157     Zr1699   2.335       .  S
O1157     Zr1451   2.347   1_554  S
O1157     Zr2005   2.343   1_544  S
O1158      C1181   1.295       .  A
O1158     Zr1174   2.458       .  S
O1159      C1182   1.293       .  A
O1159     Zr1175   2.448       .  S
O1160      C1183   1.292       .  A
O1160     Zr1176   2.451       .  S
O1161      C1184   1.296       .  A
O1161     Zr1177   2.457       .  S
O1162      C1185   1.297       .  A
O1162     Zr1729   2.466   1_545  S
O1163      C1186   1.291       .  A
O1163     Zr1728   2.430       .  S
O1164      C1187   1.294       .  A
O1165      C1188   1.292       .  A
O1165     Zr1178   2.443       .  S
O1166      C1187   1.293       .  A
O1166     Zr1176   2.446       .  S
O1167      C1188   1.293       .  A
O1167     Zr1177   2.444       .  S
O1168      C1183   1.287       .  A
O1169      C1186   1.295       .  A
O1170      C1185   1.290       .  A
O1170     Zr1175   2.433       .  S
O1171      C1184   1.289       .  A
O1171     Zr1174   2.422       .  S
O1172      C1181   1.290       .  A
O1172     Zr1178   2.431       .  S
O1173      C1182   1.290       .  A
O1173     Zr1730   2.433   1_545  S
Zr1174     O1416   2.442       .  S
Zr1174     O1424   2.342       .  S
Zr1174     O1192   2.340       .  S
Zr1175     O1415   2.421       .  S
Zr1175     O1433   2.347       .  S
Zr1175     O1179   2.343       .  S
Zr1176     O1420   2.457       .  S
Zr1176     O1715   2.431       .  S
Zr1176     O1977   2.345       .  S
Zr1176     O1431   2.340       .  S
Zr1176     O1180   2.344       .  S
Zr1176     O1742   2.353       .  S
Zr1177     O1419   2.446       .  S
Zr1177     O1714   2.466       .  S
Zr1177     O1424   2.341       .  S
Zr1177     O1985   2.343       .  S
Zr1177     O1731   2.346       .  S
Zr1177     O1192   2.348       .  S
Zr1178     O1725   2.433       .  S
Zr1178     O1731   2.343       .  S
Zr1178     O1192   2.342       .  S
O1179     Zr1729   2.346   1_545  S
O1179     Zr1730   2.343   1_545  S
C1181      C1352   1.481       .  S
C1182      C1342   1.473       .  S
C1183      C1262   1.507       .  S
C1184      C1285   1.474       .  S
C1185      C1292   1.494       .  S
C1186      C1275   1.488       .  S
C1187      C1302   1.481       .  S
C1188      C1312   1.491       .  S
H1189      O1190   0.968       .  S
O1190     Zr1728   2.353       .  S
H1191      O1192   0.966       .  S
N1193      C1198   1.354   1_565  A
N1193      C1197   1.355   1_565  A
N1193      H1225   1.039       .  S
N1194      C1201   1.350       .  A
N1194      C1202   1.350       .  A
N1195      C1200   1.348       .  A
N1195      C1199   1.351       .  A
N1195      H1226   1.040   1_545  S
N1196      C1203   1.353       .  A
N1196      C1204   1.354       .  A
C1197      C1205   1.386       .  A
C1197      C1213   1.419   1_545  A
C1198      C1214   1.419       .  A
C1198      C1206   1.388       .  A
C1199      C1207   1.389       .  A
C1199      C1216   1.414   1_545  A
C1200      C1215   1.407       .  A
C1200      C1208   1.385       .  A
C1201      C1213   1.414       .  A
C1201      C1209   1.387       .  A
C1202      C1216   1.416       .  A
C1202      C1210   1.387       .  A
C1203      C1211   1.388       .  A
C1203      C1214   1.421       .  A
C1204      C1212   1.384       .  A
C1204      C1215   1.414       .  A
C1205      C1206   1.375       .  A
C1205      H1217   1.082       .  S
C1206      H1218   1.081       .  S
C1207      C1208   1.378       .  A
C1207      H1219   1.082       .  S
C1208      H1220   1.083       .  S
C1209      C1210   1.377       .  A
C1209      H1221   1.082       .  S
C1210      H1222   1.082       .  S
C1211      C1212   1.372       .  A
C1211      H1223   1.081   1_545  S
C1212      H1224   1.082       .  S
C1213      C1315   1.497       .  S
C1214      C1305   1.498       .  S
C1215      C1332   1.489       .  S
C1216      C1325   1.495       .  S
N1227      C1232   1.352       .  A
N1227      C1231   1.352       .  A
N1227      H1259   1.041       .  S
N1228      C1235   1.350       .  A
N1228      C1236   1.350       .  A
N1229      C1234   1.353       .  A
N1229      C1233   1.352       .  A
N1229      H1260   1.042       .  S
N1230      C1237   1.350       .  A
N1230      C1238   1.350       .  A
C1231      C1239   1.387       .  A
C1231      C1247   1.416       .  A
C1232      C1248   1.415       .  A
C1232      C1240   1.387       .  A
C1233      C1241   1.385       .  A
C1233      C1250   1.413       .  A
C1234      C1249   1.420       .  A
C1234      C1242   1.389       .  A
C1235      C1247   1.414       .  A
C1235      C1243   1.387       .  A
C1236      C1250   1.411       .  A
C1236      C1244   1.386       .  A
C1237      C1245   1.385       .  A
C1237      C1248   1.412       .  A
C1238      C1246   1.389       .  A
C1238      C1249   1.418       .  A
C1239      C1240   1.379       .  A
C1239      H1251   1.082       .  S
C1240      H1252   1.082       .  S
C1241      C1242   1.381       .  A
C1241      H1253   1.082       .  S
C1242      H1254   1.082       .  S
C1243      C1244   1.375       .  A
C1243      H1255   1.082       .  S
C1244      H1256   1.082       .  S
C1245      C1246   1.380       .  A
C1245      H1257   1.082       .  S
C1246      H1258   1.082       .  S
C1247      C1295   1.497       .  S
C1248      C1272   1.492       .  S
C1249      C1265   1.505       .  S
C1250      C1282   1.490       .  S
C1261      C1262   1.427       .  A
C1261      C1266   1.403       .  A
C1261     Br1268   1.942       .  S
C1262      C1539   1.426       .  A
C1263      C1538   1.426       .  A
C1263      C1264   1.413       .  A
C1263     Br1270   1.935       .  S
C1264      C1541   1.414       .  A
C1264     Br1269   1.935       .  S
C1265      C1540   1.414       .  A
C1265      C1266   1.411       .  A
C1266     Br1267   1.935       .  S
C1271      C1548   1.406       .  A
C1271      C1276   1.407       .  A
C1271     Br1278   1.931       .  S
C1272      C1547   1.406       .  A
C1272      C1273   1.410       .  A
C1273      C1274   1.409       .  A
C1273     Br1280   1.929       .  S
C1274      C1275   1.413       .  A
C1274     Br1279   1.927       .  S
C1275      C1552   1.417       .  A
C1276      C1551   1.417       .  A
C1276     Br1277   1.925       .  S
C1281      C1282   1.412       .  A
C1281      C1286   1.408       .  A
C1281     Br1288   1.928       .  S
C1282      C1559   1.411       .  A
C1283      C1558   1.411       .  A
C1283      C1284   1.406       .  A
C1283     Br1290   1.929       .  S
C1284      C1561   1.406       .  A
C1284     Br1289   1.926       .  S
C1285      C1560   1.406       .  A
C1285      C1286   1.408       .  A
C1286     Br1287   1.928       .  S
C1291      C1568   1.417   1_554  A
C1291      C1296   1.409       .  A
C1291     Br1298   1.926       .  S
C1292      C1567   1.417       .  A
C1292      C1293   1.419       .  A
C1293      C1294   1.408       .  A
C1293     Br1300   1.929       .  S
C1294      C1295   1.410       .  A
C1294     Br1299   1.934       .  S
C1295      C1572   1.410       .  A
C1296      C1571   1.410       .  A
C1296     Br1297   1.934       .  S
C1301      C1854   1.412       .  A
C1301      C1306   1.411       .  A
C1301     Br1308   1.930       .  S
C1302      C1853   1.412       .  A
C1302      C1303   1.408       .  A
C1303      C1304   1.404       .  A
C1303     Br1310   1.920       .  S
C1304      C1857   1.411       .  A
C1304     Br1309   1.932       .  S
C1305      C1856   1.411   1_545  A
C1305      C1306   1.414       .  A
C1306     Br1307   1.929       .  S
C1311      C1864   1.415   1_545  A
C1311      C1316   1.405       .  A
C1311     Br1318   1.932       .  S
C1312      C1863   1.415       .  A
C1312      C1313   1.418       .  A
C1313      C1314   1.411       .  A
C1313     Br1320   1.932       .  S
C1314      C1867   1.411       .  A
C1314     Br1319   1.932       .  S
C1315      C1866   1.411       .  A
C1315      C1316   1.410   1_565  A
C1316     Br1317   1.929       .  S
C1321      C1874   1.429       .  A
C1321      C1326   1.413       .  A
C1321     Br1328   1.936       .  S
C1322      C1873   1.428       .  A
C1322      C1323   1.428   1_565  A
C1323      C1324   1.403       .  A
C1323     Br1330   1.938       .  S
C1324      C1325   1.404   1_545  A
C1324     Br1329   1.936       .  S
C1325      C1878   1.410       .  A
C1326      C1877   1.410       .  A
C1326     Br1327   1.936       .  S
C1331      C1332   1.408       .  A
C1331      C1336   1.409       .  A
C1331     Br1338   1.928       .  S
C1332      C1885   1.410   1_545  A
C1333      C1884   1.410       .  A
C1333      C1334   1.406       .  A
C1333     Br1340   1.930       .  S
C1334      C1887   1.407       .  A
C1334     Br1339   1.925       .  S
C1335      C1886   1.407   1_545  A
C1335      C1336   1.411       .  A
C1336     Br1337   1.924       .  S
C1341      C1346   1.403       .  A
C1341     Br1348   1.918       .  S
C1342      C1343   1.410       .  A
C1343      C1344   1.409       .  A
C1343     Br1350   1.929       .  S
C1344      C1345   1.410       .  A
C1344     Br1349   1.927       .  S
C1346     Br1347   1.931       .  S
C1351      C1356   1.408       .  A
C1351     Br1358   1.921       .  S
C1352      C1353   1.412       .  A
C1353      C1354   1.405       .  A
C1353     Br1360   1.927       .  S
C1354      C1355   1.409       .  A
C1354     Br1359   1.932       .  S
C1356     Br1357   1.931       .  S
C1361      C1362   1.415       .  A
C1361      C1366   1.410       .  A
C1361     Br1368   1.931       .  S
C1363      C1364   1.405       .  A
C1363     Br1370   1.925       .  S
C1364     Br1369   1.935       .  S
C1365      C1366   1.411       .  A
C1366     Br1367   1.931       .  S
C1371      C1376   1.406       .  A
C1371     Br1378   1.930       .  S
C1372      C1373   1.409       .  A
C1373      C1374   1.408       .  A
C1373     Br1380   1.926       .  S
C1374      C1375   1.409       .  A
C1374     Br1379   1.929       .  S
C1376     Br1377   1.931       .  S
N1381      C1386   1.353       .  A
N1381      C1385   1.351       .  A
N1381      H1413   1.038       .  S
N1382      C1389   1.352       .  A
N1382      C1390   1.351       .  A
N1383      C1388   1.354       .  A
N1383      C1387   1.353       .  A
N1383      H1414   1.037       .  S
N1384      C1391   1.350       .  A
N1384      C1392   1.349       .  A
C1385      C1393   1.386       .  A
C1385      C1401   1.414       .  A
C1386      C1402   1.417       .  A
C1386      C1394   1.388       .  A
C1387      C1395   1.387       .  A
C1387      C1404   1.416       .  A
C1388      C1403   1.416       .  A
C1388      C1396   1.387       .  A
C1389      C1401   1.414       .  A
C1389      C1397   1.386       .  A
C1390      C1404   1.414       .  A
C1390      C1398   1.387       .  A
C1391      C1399   1.386       .  A
C1391      C1402   1.413       .  A
C1392      C1400   1.387       .  A
C1392      C1403   1.412       .  A
C1393      C1394   1.376       .  A
C1393      H1405   1.082       .  S
C1394      H1406   1.082       .  S
C1395      C1396   1.376       .  A
C1395      H1407   1.082       .  S
C1396      H1408   1.082       .  S
C1397      C1398   1.373       .  A
C1397      H1409   1.082       .  S
C1398      H1410   1.082       .  S
C1399      C1400   1.373       .  A
C1399      H1411   1.082       .  S
C1400      H1412   1.082       .  S
C1401      C1651   1.488       .  S
C1402      C1641   1.491       .  S
C1403      C1631   1.489       .  S
C1404      C1621   1.486       .  S
O1415      C1426   1.288       .  A
O1416      C1427   1.293       .  A
O1417      C1428   1.292       .  A
O1418      C1429   1.291       .  A
O1418     Zr1975   2.445   1_565  S
O1419      C1981   1.292       .  A
O1420      C1980   1.296       .  A
O1421      C1427   1.293       .  A
O1421     Zr1423   2.446       .  S
O1422      C1426   1.298       .  A
O1422     Zr1975   2.468       .  S
Zr1423     O1970   2.445       .  S
Zr1423     O1974   2.467       .  S
Zr1423     O1424   2.337       .  S
Zr1423     O1985   2.335       .  S
O1425     Zr1728   2.345       .  S
C1426      C1648   1.478       .  S
C1427      C1638   1.486       .  S
C1428      C1611   1.481       .  S
C1428      O1972   1.296       .  A
C1429      C1598   1.507       .  S
C1429      O1971   1.292       .  A
H1430      O1431   0.966       .  S
H1432      O1433   0.965       .  S
O1433     Zr1975   2.335       .  S
O1433     Zr1729   2.343   1_545  S
O1434      C1457   1.295       .  A
O1434     Zr1450   2.458   1_556  S
O1435      C1458   1.293       .  A
O1435     Zr1451   2.448       .  S
O1436      C1459   1.292       .  A
O1436     Zr1452   2.451       .  S
O1437      C1460   1.296       .  A
O1437     Zr1453   2.457       .  S
O1438      C1461   1.297       .  A
O1438     Zr2005   2.466   1_545  S
O1439      C1462   1.291       .  A
O1439     Zr2004   2.430       .  S
O1440      C1463   1.294       .  A
O1441      C1464   1.292       .  A
O1441     Zr1454   2.443       .  S
O1442      C1463   1.293       .  A
O1442     Zr1452   2.446   1_556  S
O1443      C1464   1.293       .  A
O1443     Zr1453   2.444       .  S
O1444      C1459   1.287       .  A
O1445      C1462   1.295   1_556  A
O1446      C1461   1.290       .  A
O1446     Zr1451   2.433       .  S
O1447      C1460   1.289   1_554  A
O1447     Zr1450   2.422       .  S
O1448      C1457   1.290       .  A
O1448     Zr1454   2.431       .  S
O1449      C1458   1.290       .  A
O1449     Zr2006   2.433   1_545  S
Zr1450     O1468   2.340   1_554  S
Zr1451     O1455   2.343       .  S
Zr1452     O1991   2.431       .  S
Zr1452     O1701   2.345       .  S
Zr1452     O1456   2.344   1_554  S
Zr1452     O2018   2.353   1_554  S
Zr1453     O1990   2.466       .  S
Zr1453     O1709   2.343   1_556  S
Zr1453     O2007   2.346       .  S
Zr1453     O1468   2.348       .  S
Zr1454     O2001   2.433       .  S
Zr1454     O2007   2.343       .  S
Zr1454     O1468   2.342       .  S
O1455     Zr2005   2.346   1_545  S
O1455     Zr2006   2.343   1_545  S
C1457      C1628   1.481       .  S
C1458      C1618   1.473       .  S
C1459      C1538   1.507       .  S
C1460      C1561   1.474   1_556  S
C1461      C1568   1.494       .  S
C1462      C1551   1.488       .  S
C1463      C1578   1.481       .  S
C1464      C1588   1.491       .  S
H1465      O1466   0.968       .  S
O1466     Zr2004   2.353   1_556  S
H1467      O1468   0.966       .  S
N1469      C1474   1.354   1_565  A
N1469      C1473   1.355   1_565  A
N1469      H1501   1.039       .  S
N1470      C1477   1.350       .  A
N1470      C1478   1.350       .  A
N1471      C1476   1.348       .  A
N1471      C1475   1.351       .  A
N1471      H1502   1.040   1_545  S
N1472      C1479   1.353       .  A
N1472      C1480   1.354       .  A
C1473      C1481   1.386       .  A
C1473      C1489   1.419   1_545  A
C1474      C1490   1.419       .  A
C1474      C1482   1.388       .  A
C1475      C1483   1.389       .  A
C1475      C1492   1.414   1_545  A
C1476      C1491   1.407       .  A
C1476      C1484   1.385       .  A
C1477      C1489   1.414       .  A
C1477      C1485   1.387       .  A
C1478      C1492   1.416       .  A
C1478      C1486   1.387       .  A
C1479      C1487   1.388       .  A
C1479      C1490   1.421       .  A
C1480      C1488   1.384       .  A
C1480      C1491   1.414       .  A
C1481      C1482   1.375       .  A
C1481      H1493   1.082       .  S
C1482      H1494   1.081       .  S
C1483      C1484   1.378       .  A
C1483      H1495   1.082       .  S
C1484      H1496   1.083       .  S
C1485      C1486   1.377       .  A
C1485      H1497   1.082       .  S
C1486      H1498   1.082       .  S
C1487      C1488   1.372       .  A
C1487      H1499   1.081   1_545  S
C1488      H1500   1.082       .  S
C1489      C1591   1.497       .  S
C1490      C1581   1.498       .  S
C1491      C1608   1.489       .  S
C1492      C1601   1.495       .  S
N1503      C1508   1.352       .  A
N1503      C1507   1.352       .  A
N1503      H1535   1.041       .  S
N1504      C1511   1.350       .  A
N1504      C1512   1.350       .  A
N1505      C1510   1.353       .  A
N1505      C1509   1.352       .  A
N1505      H1536   1.042       .  S
N1506      C1513   1.350       .  A
N1506      C1514   1.350       .  A
C1507      C1515   1.387   1_554  A
C1507      C1523   1.416       .  A
C1508      C1524   1.415       .  A
C1508      C1516   1.387   1_554  A
C1509      C1517   1.385   1_554  A
C1509      C1526   1.413       .  A
C1510      C1525   1.420       .  A
C1510      C1518   1.389   1_554  A
C1511      C1523   1.414       .  A
C1511      C1519   1.387       .  A
C1512      C1526   1.411       .  A
C1512      C1520   1.386       .  A
C1513      C1521   1.385       .  A
C1513      C1524   1.412       .  A
C1514      C1522   1.389       .  A
C1514      C1525   1.418       .  A
C1515      C1516   1.379       .  A
C1515      H1527   1.082       .  S
C1516      H1528   1.082       .  S
C1517      C1518   1.381       .  A
C1517      H1529   1.082       .  S
C1518      H1530   1.082       .  S
C1519      C1520   1.375       .  A
C1519      H1531   1.082       .  S
C1520      H1532   1.082       .  S
C1521      C1522   1.380       .  A
C1521      H1533   1.082       .  S
C1522      H1534   1.082       .  S
C1523      C1571   1.497       .  S
C1524      C1548   1.492       .  S
C1525      C1541   1.505       .  S
C1526      C1558   1.490       .  S
C1537      C1538   1.427       .  A
C1537      C1542   1.403   1_554  A
C1537     Br1544   1.942   1_554  S
C1539      C1540   1.413       .  A
C1539     Br1546   1.935       .  S
C1540     Br1545   1.935       .  S
C1541      C1542   1.411   1_554  A
C1542     Br1543   1.935       .  S
C1547      C1552   1.407       .  A
C1547     Br1554   1.931       .  S
C1548      C1549   1.410   1_554  A
C1549      C1550   1.409       .  A
C1549     Br1556   1.929       .  S
C1550      C1551   1.413   1_556  A
C1550     Br1555   1.927       .  S
C1552     Br1553   1.925       .  S
C1557      C1558   1.412   1_556  A
C1557      C1562   1.408       .  A
C1557     Br1564   1.928       .  S
C1559      C1560   1.406       .  A
C1559     Br1566   1.929       .  S
C1560     Br1565   1.926       .  S
C1561      C1562   1.408   1_554  A
C1562     Br1563   1.928       .  S
C1567      C1572   1.409       .  A
C1567     Br1574   1.926       .  S
C1568      C1569   1.419       .  A
C1569      C1570   1.408       .  A
C1569     Br1576   1.929       .  S
C1570      C1571   1.410   1_556  A
C1570     Br1575   1.934       .  S
C1572     Br1573   1.934       .  S
C1577      C2130   1.412       .  A
C1577      C1582   1.411       .  A
C1577     Br1584   1.930       .  S
C1578      C2129   1.412       .  A
C1578      C1579   1.408       .  A
C1579      C1580   1.404       .  A
C1579     Br1586   1.920       .  S
C1580      C2133   1.411       .  A
C1580     Br1585   1.932       .  S
C1581      C2132   1.411   1_545  A
C1581      C1582   1.414       .  A
C1582     Br1583   1.929       .  S
C1587      C2140   1.415   1_545  A
C1587      C1592   1.405       .  A
C1587     Br1594   1.932       .  S
C1588      C2139   1.415       .  A
C1588      C1589   1.418       .  A
C1589      C1590   1.411       .  A
C1589     Br1596   1.932       .  S
C1590      C2143   1.411       .  A
C1590     Br1595   1.932       .  S
C1591      C2142   1.411       .  A
C1591      C1592   1.410   1_565  A
C1592     Br1593   1.929       .  S
C1597      C2150   1.429       .  A
C1597      C1602   1.413       .  A
C1597     Br1604   1.936       .  S
C1598      C2149   1.428       .  A
C1598      C1599   1.428   1_565  A
C1599      C1600   1.403       .  A
C1599     Br1606   1.938       .  S
C1600      C1601   1.404   1_545  A
C1600     Br1605   1.936       .  S
C1601      C2154   1.410       .  A
C1602      C2153   1.410       .  A
C1602     Br1603   1.936       .  S
C1607      C1608   1.408       .  A
C1607      C1612   1.409       .  A
C1607     Br1614   1.928       .  S
C1608      C2161   1.410   1_545  A
C1609      C2160   1.410       .  A
C1609      C1610   1.406       .  A
C1609     Br1616   1.930       .  S
C1610      C2163   1.407       .  A
C1610     Br1615   1.925       .  S
C1611      C2162   1.407   1_545  A
C1611      C1612   1.411       .  A
C1612     Br1613   1.924       .  S
C1617      C1622   1.403       .  A
C1617     Br1624   1.918       .  S
C1618      C1619   1.410       .  A
C1619      C1620   1.409       .  A
C1619     Br1626   1.929       .  S
C1620      C1621   1.410       .  A
C1620     Br1625   1.927       .  S
C1622     Br1623   1.931       .  S
C1627      C1632   1.408       .  A
C1627     Br1634   1.921       .  S
C1628      C1629   1.412       .  A
C1629      C1630   1.405       .  A
C1629     Br1636   1.927       .  S
C1630      C1631   1.409       .  A
C1630     Br1635   1.932       .  S
C1632     Br1633   1.931       .  S
C1637      C1638   1.415       .  A
C1637      C1642   1.410       .  A
C1637     Br1644   1.931       .  S
C1639      C1640   1.405       .  A
C1639     Br1646   1.925       .  S
C1640     Br1645   1.935       .  S
C1641      C1642   1.411       .  A
C1642     Br1643   1.931       .  S
C1647      C1652   1.406       .  A
C1647     Br1654   1.930       .  S
C1648      C1649   1.409       .  A
C1649      C1650   1.408       .  A
C1649     Br1656   1.926       .  S
C1650      C1651   1.409       .  A
C1650     Br1655   1.929       .  S
C1652     Br1653   1.931       .  S
N1657      C1662   1.353       .  A
N1657      C1661   1.352       .  A
N1657      H1689   1.037       .  S
N1658      C1665   1.352       .  A
N1658      C1666   1.351       .  A
N1659      C1664   1.354       .  A
N1659      C1663   1.353       .  A
N1659      H1690   1.037       .  S
N1660      C1667   1.350       .  A
N1660      C1668   1.349       .  A
C1661      C1669   1.386       .  A
C1661      C1677   1.414       .  A
C1662      C1678   1.417       .  A
C1662      C1670   1.388       .  A
C1663      C1671   1.387       .  A
C1663      C1680   1.416       .  A
C1664      C1679   1.416       .  A
C1664      C1672   1.387       .  A
C1665      C1677   1.414       .  A
C1665      C1673   1.386       .  A
C1666      C1680   1.414       .  A
C1666      C1674   1.387       .  A
C1667      C1675   1.386       .  A
C1667      C1678   1.413       .  A
C1668      C1676   1.387       .  A
C1668      C1679   1.412       .  A
C1669      C1670   1.376       .  A
C1669      H1681   1.082       .  S
C1670      H1682   1.082       .  S
C1671      C1672   1.376       .  A
C1671      H1683   1.082       .  S
C1672      H1684   1.082       .  S
C1673      C1674   1.373       .  A
C1673      H1685   1.082       .  S
C1674      H1686   1.082       .  S
C1675      C1676   1.373       .  A
C1675      H1687   1.082       .  S
C1676      H1688   1.082       .  S
C1677      C1927   1.488       .  S
C1678      C1917   1.491       .  S
C1679      C1907   1.489       .  S
C1680      C1897   1.486       .  S
O1691      C1702   1.288       .  A
O1691     Zr2003   2.421   1_554  S
O1692      C1703   1.293       .  A
O1692     Zr2002   2.441       .  S
O1693      C1704   1.292       .  A
O1694      C1705   1.291       .  A
O1695     Zr2005   2.446   1_554  S
O1696     Zr2004   2.457       .  S
O1697      C1703   1.293       .  A
O1697     Zr1699   2.447   1_565  S
O1698      C1702   1.298       .  A
Zr1699     O1700   2.337   1_545  S
O1700     Zr2002   2.343       .  S
O1700     Zr2005   2.342   1_554  S
C1702      C1924   1.477       .  S
C1703      C1914   1.487       .  S
C1704      C1887   1.481       .  S
C1705      C1874   1.507       .  S
H1706      O1707   0.966       .  S
O1707     Zr2004   2.340   1_565  S
H1708      O1709   0.964       .  S
O1709     Zr2003   2.347   1_554  S
O1710      C1733   1.295       .  A
O1710     Zr1726   2.458       .  S
O1711      C1734   1.293       .  A
O1711     Zr1727   2.448       .  S
O1712      C1735   1.292       .  A
O1712     Zr1728   2.451   1_565  S
O1713      C1736   1.296       .  A
O1713     Zr1729   2.457       .  S
O1714      C1737   1.297       .  A
O1715      C1738   1.291       .  A
O1716      C1739   1.295   1_565  A
O1717      C1740   1.292       .  A
O1717     Zr1730   2.443       .  S
O1718      C1739   1.293       .  A
O1718     Zr1728   2.446       .  S
O1719      C1740   1.293       .  A
O1719     Zr1729   2.444       .  S
O1720      C1735   1.287       .  A
O1721      C1738   1.295       .  A
O1722      C1737   1.290       .  A
O1722     Zr1727   2.434       .  S
O1723      C1736   1.289       .  A
O1723     Zr1726   2.422       .  S
O1724      C1733   1.290       .  A
O1724     Zr1730   2.430       .  S
O1725      C1734   1.290       .  A
Zr1726     O1968   2.441       .  S
Zr1726     O1976   2.343       .  S
Zr1726     O1744   2.340       .  S
Zr1727     O1967   2.421       .  S
Zr1727     O1985   2.347       .  S
Zr1727     O1731   2.343       .  S
Zr1728     O1972   2.457       .  S
Zr1728     O1983   2.340   1_545  S
Zr1728     O1732   2.344   1_545  S
Zr1729     O1971   2.446       .  S
Zr1729     O1976   2.342       .  S
Zr1729     O1744   2.348       .  S
Zr1730     O1744   2.343       .  S
C1733      C1904   1.480       .  S
C1734      C1894   1.473       .  S
C1735      C1814   1.507       .  S
C1736      C1837   1.474       .  S
C1737      C1844   1.494       .  S
C1738      C1827   1.489       .  S
C1739      C1854   1.481       .  S
C1740      C1864   1.491       .  S
H1741      O1742   0.966       .  S
H1743      O1744   0.968       .  S
N1745      C1750   1.354       .  A
N1745      C1749   1.355       .  A
N1745      H1777   1.039       .  S
N1746      C1753   1.350       .  A
N1746      C1754   1.350       .  A
N1747      C1752   1.348       .  A
N1747      C1751   1.351       .  A
N1747      H1778   1.040       .  S
N1748      C1755   1.353       .  A
N1748      C1756   1.354       .  A
C1749      C1757   1.386       .  A
C1749      C1765   1.419       .  A
C1750      C1766   1.419       .  A
C1750      C1758   1.388       .  A
C1751      C1759   1.389       .  A
C1751      C1768   1.414       .  A
C1752      C1767   1.407       .  A
C1752      C1760   1.385       .  A
C1753      C1765   1.414       .  A
C1753      C1761   1.386       .  A
C1754      C1768   1.416       .  A
C1754      C1762   1.387       .  A
C1755      C1763   1.388       .  A
C1755      C1766   1.421       .  A
C1756      C1764   1.384       .  A
C1756      C1767   1.414       .  A
C1757      C1758   1.375       .  A
C1757      H1769   1.082       .  S
C1758      H1770   1.081       .  S
C1759      C1760   1.378       .  A
C1759      H1771   1.082       .  S
C1760      H1772   1.083       .  S
C1761      C1762   1.377       .  A
C1761      H1773   1.082       .  S
C1762      H1774   1.082       .  S
C1763      C1764   1.372       .  A
C1763      H1775   1.081       .  S
C1764      H1776   1.082       .  S
C1765      C1867   1.497       .  S
C1766      C1857   1.497       .  S
C1767      C1884   1.489       .  S
C1768      C1877   1.495       .  S
N1779      C1784   1.352       .  A
N1779      C1783   1.353       .  A
N1779      H1811   1.041       .  S
N1780      C1787   1.350       .  A
N1780      C1788   1.350       .  A
N1781      C1786   1.353       .  A
N1781      C1785   1.352       .  A
N1781      H1812   1.042       .  S
N1782      C1789   1.350       .  A
N1782      C1790   1.350       .  A
C1783      C1791   1.387       .  A
C1783      C1799   1.416       .  A
C1784      C1800   1.415       .  A
C1784      C1792   1.387       .  A
C1785      C1793   1.385       .  A
C1785      C1802   1.413       .  A
C1786      C1801   1.420       .  A
C1786      C1794   1.389       .  A
C1787      C1799   1.414       .  A
C1787      C1795   1.387       .  A
C1788      C1802   1.411       .  A
C1788      C1796   1.386       .  A
C1789      C1797   1.385       .  A
C1789      C1800   1.412       .  A
C1790      C1798   1.389       .  A
C1790      C1801   1.418       .  A
C1791      C1792   1.379       .  A
C1791      H1803   1.082       .  S
C1792      H1804   1.082       .  S
C1793      C1794   1.381       .  A
C1793      H1805   1.082       .  S
C1794      H1806   1.082       .  S
C1795      C1796   1.375       .  A
C1795      H1807   1.082       .  S
C1796      H1808   1.082       .  S
C1797      C1798   1.380       .  A
C1797      H1809   1.082       .  S
C1798      H1810   1.082       .  S
C1799      C1847   1.497       .  S
C1800      C1824   1.492       .  S
C1801      C1817   1.505       .  S
C1802      C1834   1.490       .  S
C1813      C1814   1.427       .  A
C1813      C1818   1.403       .  A
C1813     Br1820   1.942       .  S
C1814      C2091   1.426       .  A
C1815      C2090   1.426       .  A
C1815      C1816   1.413       .  A
C1815     Br1822   1.935       .  S
C1816      C2093   1.414       .  A
C1816     Br1821   1.935       .  S
C1817      C2092   1.414       .  A
C1817      C1818   1.411       .  A
C1818     Br1819   1.935       .  S
C1823      C2100   1.406       .  A
C1823      C1828   1.407       .  A
C1823     Br1830   1.930       .  S
C1824      C2099   1.406       .  A
C1824      C1825   1.410       .  A
C1825      C1826   1.409       .  A
C1825     Br1832   1.929       .  S
C1826      C1827   1.413       .  A
C1826     Br1831   1.927       .  S
C1827      C2104   1.417       .  A
C1828      C2103   1.417       .  A
C1828     Br1829   1.925       .  S
C1833      C1834   1.412       .  A
C1833      C1838   1.408       .  A
C1833     Br1840   1.928       .  S
C1834      C2111   1.411       .  A
C1835      C2110   1.411       .  A
C1835      C1836   1.406       .  A
C1835     Br1842   1.929       .  S
C1836      C2113   1.406       .  A
C1836     Br1841   1.926       .  S
C1837      C2112   1.406       .  A
C1837      C1838   1.408       .  A
C1838     Br1839   1.928       .  S
C1843      C2120   1.417   1_554  A
C1843      C1848   1.409       .  A
C1843     Br1850   1.927       .  S
C1844      C2119   1.417       .  A
C1844      C1845   1.419       .  A
C1845      C1846   1.408       .  A
C1845     Br1852   1.929       .  S
C1846      C1847   1.411       .  A
C1846     Br1851   1.934       .  S
C1847      C2124   1.410       .  A
C1848      C2123   1.410       .  A
C1848     Br1849   1.934       .  S
C1853      C1858   1.411       .  A
C1853     Br1860   1.930       .  S
C1854      C1855   1.408   1_545  A
C1855      C1856   1.404       .  A
C1855     Br1862   1.920       .  S
C1856     Br1861   1.931       .  S
C1857      C1858   1.414       .  A
C1858     Br1859   1.929       .  S
C1863      C1868   1.405       .  A
C1863     Br1870   1.932       .  S
C1864      C1865   1.418       .  A
C1865      C1866   1.411       .  A
C1865     Br1872   1.932       .  S
C1866     Br1871   1.932       .  S
C1867      C1868   1.410       .  A
C1868     Br1869   1.929       .  S
C1873      C1878   1.413       .  A
C1873     Br1880   1.936       .  S
C1874      C1875   1.428       .  A
C1875      C1876   1.403       .  A
C1875     Br1882   1.938       .  S
C1876      C1877   1.404       .  A
C1876     Br1881   1.936       .  S
C1878     Br1879   1.936       .  S
C1883      C1884   1.408       .  A
C1883      C1888   1.409       .  A
C1883     Br1890   1.928       .  S
C1885      C1886   1.406       .  A
C1885     Br1892   1.930       .  S
C1886     Br1891   1.925       .  S
C1887      C1888   1.411       .  A
C1888     Br1889   1.924       .  S
C1893      C1898   1.403       .  A
C1893     Br1900   1.918       .  S
C1894      C1895   1.409       .  A
C1895      C1896   1.409       .  A
C1895     Br1902   1.929       .  S
C1896      C1897   1.410       .  A
C1896     Br1901   1.927       .  S
C1898     Br1899   1.930       .  S
C1903      C1908   1.408       .  A
C1903     Br1910   1.921       .  S
C1904      C1905   1.412       .  A
C1905      C1906   1.405       .  A
C1905     Br1912   1.927       .  S
C1906      C1907   1.409       .  A
C1906     Br1911   1.932       .  S
C1908     Br1909   1.931       .  S
C1913      C1914   1.415       .  A
C1913      C1918   1.410       .  A
C1913     Br1920   1.931       .  S
C1915      C1916   1.406       .  A
C1915     Br1922   1.926       .  S
C1916     Br1921   1.935       .  S
C1917      C1918   1.411       .  A
C1918     Br1919   1.931       .  S
C1923      C1928   1.406       .  A
C1923     Br1930   1.930       .  S
C1924      C1925   1.409       .  A
C1925      C1926   1.408       .  A
C1925     Br1932   1.926       .  S
C1926      C1927   1.410       .  A
C1926     Br1931   1.929       .  S
C1928     Br1929   1.931       .  S
N1933      C1938   1.353       .  A
N1933      C1937   1.352       .  A
N1933      H1965   1.037       .  S
N1934      C1941   1.352       .  A
N1934      C1942   1.351       .  A
N1935      C1940   1.354       .  A
N1935      C1939   1.353       .  A
N1935      H1966   1.037       .  S
N1936      C1943   1.350       .  A
N1936      C1944   1.349       .  A
C1937      C1945   1.386       .  A
C1937      C1953   1.414       .  A
C1938      C1954   1.417       .  A
C1938      C1946   1.388       .  A
C1939      C1947   1.387       .  A
C1939      C1956   1.416       .  A
C1940      C1955   1.416       .  A
C1940      C1948   1.387       .  A
C1941      C1953   1.414       .  A
C1941      C1949   1.386       .  A
C1942      C1956   1.414       .  A
C1942      C1950   1.387       .  A
C1943      C1951   1.386       .  A
C1943      C1954   1.413       .  A
C1944      C1952   1.387       .  A
C1944      C1955   1.412       .  A
C1945      C1946   1.376       .  A
C1945      H1957   1.082       .  S
C1946      H1958   1.082       .  S
C1947      C1948   1.376       .  A
C1947      H1959   1.082       .  S
C1948      H1960   1.082       .  S
C1949      C1950   1.373       .  A
C1949      H1961   1.082       .  S
C1950      H1962   1.082       .  S
C1951      C1952   1.373       .  A
C1951      H1963   1.082       .  S
C1952      H1964   1.082       .  S
C1953      C2203   1.488       .  S
C1954      C2193   1.491       .  S
C1955      C2183   1.489       .  S
C1956      C2173   1.486       .  S
O1967      C1978   1.288       .  A
O1968      C1979   1.293       .  A
O1969      C1980   1.292       .  A
O1970      C1981   1.291       .  A
O1973      C1979   1.293       .  A
O1973     Zr1975   2.447   1_565  S
O1974      C1978   1.298       .  A
Zr1975     O1976   2.337   1_545  S
C1978      C2200   1.477       .  S
C1979      C2190   1.487       .  S
C1980      C2163   1.481       .  S
C1981      C2150   1.507       .  S
H1982      O1983   0.966       .  S
H1984      O1985   0.964       .  S
O1986      C2009   1.295       .  A
O1986     Zr2002   2.458   1_556  S
O1987      C2010   1.293       .  A
O1987     Zr2003   2.448       .  S
O1988      C2011   1.292       .  A
O1988     Zr2004   2.451   1_565  S
O1989      C2012   1.296       .  A
O1989     Zr2005   2.457       .  S
O1990      C2013   1.297       .  A
O1991      C2014   1.291       .  A
O1992      C2015   1.295   1_565  A
O1993      C2016   1.292       .  A
O1993     Zr2006   2.443       .  S
O1994      C2015   1.293       .  A
O1994     Zr2004   2.446   1_556  S
O1995      C2016   1.293       .  A
O1995     Zr2005   2.444       .  S
O1996      C2011   1.287       .  A
O1997      C2014   1.295   1_556  A
O1998      C2013   1.290       .  A
O1998     Zr2003   2.434       .  S
O1999      C2012   1.289   1_554  A
O1999     Zr2002   2.422       .  S
O2000      C2009   1.290       .  A
O2000     Zr2006   2.430       .  S
O2001      C2010   1.290       .  A
Zr2002     O2020   2.340   1_554  S
Zr2003     O2007   2.343       .  S
Zr2004     O2008   2.344   1_544  S
Zr2005     O2020   2.348       .  S
Zr2006     O2020   2.343       .  S
C2009      C2180   1.480       .  S
C2010      C2170   1.473       .  S
C2011      C2090   1.507       .  S
C2012      C2113   1.474   1_556  S
C2013      C2120   1.494       .  S
C2014      C2103   1.489       .  S
C2015      C2130   1.481       .  S
C2016      C2140   1.491       .  S
H2017      O2018   0.966       .  S
H2019      O2020   0.968       .  S
N2021      C2026   1.354       .  A
N2021      C2025   1.355       .  A
N2021      H2053   1.039       .  S
N2022      C2029   1.350       .  A
N2022      C2030   1.350       .  A
N2023      C2028   1.348       .  A
N2023      C2027   1.351       .  A
N2023      H2054   1.040       .  S
N2024      C2031   1.353       .  A
N2024      C2032   1.354       .  A
C2025      C2033   1.386       .  A
C2025      C2041   1.419       .  A
C2026      C2042   1.419       .  A
C2026      C2034   1.388       .  A
C2027      C2035   1.389       .  A
C2027      C2044   1.414       .  A
C2028      C2043   1.407       .  A
C2028      C2036   1.385       .  A
C2029      C2041   1.414       .  A
C2029      C2037   1.386       .  A
C2030      C2044   1.416       .  A
C2030      C2038   1.387       .  A
C2031      C2039   1.388       .  A
C2031      C2042   1.421       .  A
C2032      C2040   1.384       .  A
C2032      C2043   1.414       .  A
C2033      C2034   1.375       .  A
C2033      H2045   1.082       .  S
C2034      H2046   1.081       .  S
C2035      C2036   1.378       .  A
C2035      H2047   1.082       .  S
C2036      H2048   1.083       .  S
C2037      C2038   1.377       .  A
C2037      H2049   1.082       .  S
C2038      H2050   1.082       .  S
C2039      C2040   1.372       .  A
C2039      H2051   1.081       .  S
C2040      H2052   1.082       .  S
C2041      C2143   1.497       .  S
C2042      C2133   1.497       .  S
C2043      C2160   1.489       .  S
C2044      C2153   1.495       .  S
N2055      C2060   1.352       .  A
N2055      C2059   1.353       .  A
N2055      H2087   1.041       .  S
N2056      C2063   1.350       .  A
N2056      C2064   1.350       .  A
N2057      C2062   1.353       .  A
N2057      C2061   1.352       .  A
N2057      H2088   1.042       .  S
N2058      C2065   1.350       .  A
N2058      C2066   1.350       .  A
C2059      C2067   1.387   1_554  A
C2059      C2075   1.416       .  A
C2060      C2076   1.415       .  A
C2060      C2068   1.387   1_554  A
C2061      C2069   1.385   1_554  A
C2061      C2078   1.413       .  A
C2062      C2077   1.420       .  A
C2062      C2070   1.389   1_554  A
C2063      C2075   1.414       .  A
C2063      C2071   1.387       .  A
C2064      C2078   1.411       .  A
C2064      C2072   1.386       .  A
C2065      C2073   1.385       .  A
C2065      C2076   1.412       .  A
C2066      C2074   1.389       .  A
C2066      C2077   1.418       .  A
C2067      C2068   1.379       .  A
C2067      H2079   1.082       .  S
C2068      H2080   1.082       .  S
C2069      C2070   1.381       .  A
C2069      H2081   1.082       .  S
C2070      H2082   1.082       .  S
C2071      C2072   1.375       .  A
C2071      H2083   1.082       .  S
C2072      H2084   1.082       .  S
C2073      C2074   1.380       .  A
C2073      H2085   1.082       .  S
C2074      H2086   1.082       .  S
C2075      C2123   1.497       .  S
C2076      C2100   1.492       .  S
C2077      C2093   1.505       .  S
C2078      C2110   1.490       .  S
C2089      C2090   1.427       .  A
C2089      C2094   1.403   1_554  A
C2089     Br2096   1.942   1_554  S
C2091      C2092   1.413       .  A
C2091     Br2098   1.935       .  S
C2092     Br2097   1.935       .  S
C2093      C2094   1.411   1_554  A
C2094     Br2095   1.935       .  S
C2099      C2104   1.407       .  A
C2099     Br2106   1.930       .  S
C2100      C2101   1.410   1_554  A
C2101      C2102   1.409       .  A
C2101     Br2108   1.929       .  S
C2102      C2103   1.413   1_556  A
C2102     Br2107   1.927       .  S
C2104     Br2105   1.925       .  S
C2109      C2110   1.412   1_556  A
C2109      C2114   1.408       .  A
C2109     Br2116   1.928       .  S
C2111      C2112   1.406       .  A
C2111     Br2118   1.929       .  S
C2112     Br2117   1.926       .  S
C2113      C2114   1.408   1_554  A
C2114     Br2115   1.928       .  S
C2119      C2124   1.409       .  A
C2119     Br2126   1.927       .  S
C2120      C2121   1.419       .  A
C2121      C2122   1.408       .  A
C2121     Br2128   1.929       .  S
C2122      C2123   1.411   1_556  A
C2122     Br2127   1.934       .  S
C2124     Br2125   1.934       .  S
C2129      C2134   1.411       .  A
C2129     Br2136   1.930       .  S
C2130      C2131   1.408   1_545  A
C2131      C2132   1.404       .  A
C2131     Br2138   1.920       .  S
C2132     Br2137   1.931       .  S
C2133      C2134   1.414       .  A
C2134     Br2135   1.929       .  S
C2139      C2144   1.405       .  A
C2139     Br2146   1.932       .  S
C2140      C2141   1.418       .  A
C2141      C2142   1.411       .  A
C2141     Br2148   1.932       .  S
C2142     Br2147   1.932       .  S
C2143      C2144   1.410       .  A
C2144     Br2145   1.929       .  S
C2149      C2154   1.413       .  A
C2149     Br2156   1.936       .  S
C2150      C2151   1.428       .  A
C2151      C2152   1.403       .  A
C2151     Br2158   1.938       .  S
C2152      C2153   1.404       .  A
C2152     Br2157   1.936       .  S
C2154     Br2155   1.936       .  S
C2159      C2160   1.408       .  A
C2159      C2164   1.409       .  A
C2159     Br2166   1.928       .  S
C2161      C2162   1.406       .  A
C2161     Br2168   1.930       .  S
C2162     Br2167   1.925       .  S
C2163      C2164   1.411       .  A
C2164     Br2165   1.924       .  S
C2169      C2174   1.403       .  A
C2169     Br2176   1.918       .  S
C2170      C2171   1.409       .  A
C2171      C2172   1.409       .  A
C2171     Br2178   1.929       .  S
C2172      C2173   1.410       .  A
C2172     Br2177   1.927       .  S
C2174     Br2175   1.930       .  S
C2179      C2184   1.408       .  A
C2179     Br2186   1.921       .  S
C2180      C2181   1.412       .  A
C2181      C2182   1.405       .  A
C2181     Br2188   1.927       .  S
C2182      C2183   1.409       .  A
C2182     Br2187   1.932       .  S
C2184     Br2185   1.931       .  S
C2189      C2190   1.415       .  A
C2189      C2194   1.410       .  A
C2189     Br2196   1.931       .  S
C2191      C2192   1.406       .  A
C2191     Br2198   1.926       .  S
C2192     Br2197   1.935       .  S
C2193      C2194   1.411       .  A
C2194     Br2195   1.931       .  S
C2199      C2204   1.406       .  A
C2199     Br2206   1.930       .  S
C2200      C2201   1.409       .  A
C2201      C2202   1.408       .  A
C2201     Br2208   1.926       .  S
C2202      C2203   1.410       .  A
C2202     Br2207   1.929       .  S
C2204     Br2205   1.931       .  S
