geometry optimzed in LAMMPS
_audit_creation_date              2020-11-30 
_audit_creation_method            'lammps2cif' 
_symmetry_space_group_name_H-M    'P1' 
_symmetry_Int_Tables_number       1 
_symmetry_cell_setting            triclinic 
loop_ 
_symmetry_equiv_pos_as_xyz 
  x,y,z 
_cell_length_a                    39.32886489 
_cell_length_b                    39.379304313878926 
_cell_length_c                    27.79563412331865 
_cell_angle_alpha                 90.0359365035745 
_cell_angle_beta                  89.91312849841327 
_cell_angle_gamma                 90.18046944952313 
loop_ 
_atom_site_label 
_atom_site_type_symbol 
_atom_site_fract_x 
_atom_site_fract_y 
_atom_site_fract_z 
_atom_site_charge 
C1          C  0.51542143  0.23264260  0.21716233     0.03500
C2          C  0.51442631  0.26835937  0.21687551    -0.12600
C3          C  0.49689686  0.28637957  0.25278069     0.01000
C4          C  0.47875336  0.26831378  0.28800634    -0.11200
C5          C  0.47884239  0.23270247  0.28837976     0.03500
C6          C  0.49755055  0.21510178  0.25330773    -0.10600
H7          H  0.52745916  0.28232073  0.18881336     0.09100
H8          H  0.46472475  0.28197691  0.31539739     0.06600
H9          H  0.49817497  0.18761619  0.25434832     0.06500
O10         O  0.50030985  0.55168771  0.29429708    -0.72500
O11         O  0.49947692  0.44961771  0.29416566    -0.73500
O12         O  0.55121851  0.50035644  0.29546817    -0.62100
O13         O  0.44857947  0.50127545  0.29278524    -0.70600
O14         O  0.44998767  0.50241440  0.21311691    -0.70100
O15         O  0.55169749  0.49979722  0.21582205    -0.61400
O16         O  0.49962542  0.45007476  0.21449083    -0.73900
O17         O  0.50223762  0.55172208  0.21460354    -0.72700
Cu18       Cu  0.49985217  0.50069600  0.29702847     1.04600
Cu19       Cu  0.50092235  0.50094428  0.21184111     1.11500
C20         C  0.50141708  0.56786024  0.25446462     0.93600
C21         C  0.49939015  0.43363697  0.25410306     0.92800
C22         C  0.56771327  0.49985827  0.25575473     0.84900
C23         C  0.43308157  0.50268400  0.25238294     0.91200
C24         C  0.76857646  0.47322090  0.28493863     0.03500
C25         C  0.73303385  0.47532470  0.28718409    -0.12600
C26         C  0.71522720  0.49626197  0.25517381     0.01000
C27         C  0.73347706  0.51541526  0.22113660    -0.11200
C28         C  0.76910076  0.51289766  0.21722222     0.03500
C29         C  0.78628861  0.49122900  0.24919842    -0.10600
H30         H  0.71931384  0.46081841  0.31407701     0.09100
H31         H  0.71965730  0.53264816  0.19805518     0.06600
H32         H  0.81348749  0.48776570  0.24631720     0.06500
C33         C  0.51682630  0.76895519  0.28746751     0.03500
C34         C  0.49880039  0.78575253  0.25107345    -0.12600
C35         C  0.48228425  0.76738970  0.21449698     0.01000
C36         C  0.48434290  0.73177943  0.21448649    -0.11200
C37         C  0.50165271  0.71462276  0.25118210     0.03500
C38         C  0.51775799  0.73332557  0.28757993    -0.10600
H39         H  0.49792395  0.81322818  0.25099447     0.09100
H40         H  0.47240808  0.71726007  0.18600469     0.06600
H41         H  0.53125655  0.72008393  0.31585243     0.06500
C42         C  0.28599287  0.51015764  0.24713258     0.03500
C43         C  0.26761153  0.52770525  0.28255360    -0.12600
C44         C  0.23191333  0.52728567  0.28257404     0.01000
C45         C  0.21463572  0.50916317  0.24654745    -0.11200
C46         C  0.23259978  0.49189906  0.21029677     0.03500
C47         C  0.26835242  0.49277003  0.21074341    -0.10600
H48         H  0.28113772  0.54130906  0.31055604     0.09100
H49         H  0.18711650  0.50829786  0.24705784     0.06600
H50         H  0.28255512  0.47941789  0.18321318     0.06500
C51         C  0.52292230  0.76727573  0.71133614     0.03500
C52         C  0.50666467  0.78538081  0.74832494    -0.12600
C53         C  0.48726274  0.76845255  0.78341580     0.01000
C54         C  0.48502436  0.73287284  0.78176695    -0.11200
C55         C  0.50208325  0.71430607  0.74609578     0.03500
C56         C  0.52073174  0.73169684  0.71070600    -0.10600
H57         H  0.50899122  0.81277092  0.74951550     0.09100
H58         H  0.46942785  0.71954147  0.80781858     0.06600
H59         H  0.53422315  0.71747172  0.68333191     0.06500
O60         O  0.49847899  0.55118624  0.78409593    -0.72500
O61         O  0.49817009  0.44942262  0.78351135    -0.73500
O62         O  0.54927502  0.49996448  0.78522698    -0.62100
O63         O  0.44753481  0.50018130  0.78316872    -0.70600
O64         O  0.44814765  0.50068599  0.70320719    -0.70100
O65         O  0.55047969  0.50066435  0.70555149    -0.61400
O66         O  0.49953520  0.44981490  0.70375880    -0.73900
O67         O  0.49912982  0.55138795  0.70437143    -0.72700
Cu68       Cu  0.49832648  0.50022462  0.78675168     1.04600
Cu69       Cu  0.49934536  0.50065362  0.70141108     1.04300
C70         C  0.49862083  0.56744336  0.74428015     0.93600
C71         C  0.49912220  0.43350093  0.74345939     0.92800
C72         C  0.56609567  0.49988539  0.74586435     0.84900
C73         C  0.43187606  0.50055135  0.74302859     0.91200
C74         C  0.28546947  0.50400383  0.74978897     0.03500
C75         C  0.26727290  0.52215852  0.71486415    -0.12600
C76         C  0.23161579  0.52402467  0.71651208     0.01000
C77         C  0.21418777  0.50720603  0.75384621    -0.11200
C78         C  0.23192926  0.48802526  0.78817683     0.03500
C79         C  0.26757118  0.48717897  0.78646584    -0.10600
H80         H  0.28094714  0.53418110  0.68558169     0.09100
H81         H  0.18674341  0.50864595  0.75598327     0.06600
H82         H  0.28138822  0.47375169  0.81421977     0.06500
C83         C  0.48473464  0.23306517  0.70902101     0.03500
C84         C  0.48538260  0.26868066  0.70824125    -0.12600
C85         C  0.50185083  0.28694911  0.74470222     0.01000
C86         C  0.51854061  0.26940726  0.78161310    -0.11200
C87         C  0.51926054  0.23375312  0.78207385     0.03500
C88         C  0.50208132  0.21578096  0.74572384    -0.10600
H89         H  0.47264845  0.28227726  0.67960608     0.09100
H90         H  0.53090606  0.28362731  0.81004475     0.06600
H91         H  0.50200708  0.18827232  0.74614995     0.06500
C92         C  0.76731723  0.47449112  0.71740572     0.03500
C93         C  0.78475901  0.49203208  0.75383077    -0.12600
C94         C  0.76695166  0.50946898  0.78998495     0.01000
C95         C  0.73122215  0.50929534  0.78927744    -0.11200
C96         C  0.71329644  0.49188599  0.75316296     0.03500
C97         C  0.73158346  0.47437888  0.71749060    -0.10600
H98         H  0.81229303  0.49236209  0.75372997     0.09100
H99         H  0.71732757  0.52322592  0.81652272     0.06600
H100        H  0.71798403  0.46097282  0.68937925     0.06500
C101        C  0.97926189  0.73200345  0.79000711     0.03500
C102        C  0.97978930  0.76764525  0.79140586    -0.12600
C103        C  0.99740591  0.78631809  0.75629534     0.01000
C104        C  0.01418121  0.76900001  0.71908897    -0.11200
C105        C  0.01426318  0.73334794  0.71730736     0.03500
C106        C  0.99706522  0.71506495  0.75333626    -0.10600
H107        H  0.96634389  0.78090334  0.81977805     0.09100
H108        H  0.02666471  0.78338060  0.69089336     0.06600
H109        H  0.99804557  0.68758184  0.75343998     0.06500
O110        O  0.94774886  0.99909401  0.71300560    -0.72500
O111        O  0.04946547  0.99787446  0.71419912    -0.73500
O112        O  0.99797393  0.94769012  0.71572714    -0.62100
O113        O  0.99977173  0.04957769  0.71163632    -0.70600
O114        O  0.99930813  0.05103713  0.79131427    -0.70100
O115        O  0.99688305  0.94924954  0.79565385    -0.61400
O116        O  0.04922173  0.99922765  0.79388181    -0.73900
O117        O  0.94712802  0.00080367  0.79268115    -0.72700
Cu118      Cu  0.99869770  0.99852878  0.71088539     1.04600
Cu119      Cu  0.99808343  0.00017603  0.79617662     1.04300
C120        C  0.93124284  0.99979916  0.75263164     0.93600
C121        C  0.06555169  0.99828781  0.75409050     0.92800
C122        C  0.99720931  0.93253636  0.75630563     0.84900
C123        C  0.00030699  0.06648400  0.75089633     0.91200
C124        C  0.26682696  0.97612558  0.78226915     0.03500
C125        C  0.28417925  0.99363779  0.74574293    -0.12600
C126        C  0.26643770  0.01345867  0.71257850     0.01000
C127        C  0.23088003  0.01493073  0.71459429    -0.11200
C128        C  0.21288505  0.99626635  0.74947775     0.03500
C129        C  0.23110172  0.97722481  0.78353821    -0.10600
H130        H  0.31163692  0.99220772  0.74325864     0.09100
H131        H  0.21731891  0.03054896  0.68895714     0.06600
H132        H  0.21744350  0.96338081  0.81118667     0.06500
C133        C  0.98739264  0.26673681  0.71482665     0.03500
C134        C  0.98914819  0.23114478  0.71389793    -0.12600
C135        C  0.00732491  0.21343049  0.74922536     0.01000
C136        C  0.02483642  0.23175080  0.78485607    -0.11200
C137        C  0.02334801  0.26734970  0.78614620     0.03500
C138        C  0.00462495  0.28465550  0.75102744    -0.10600
H139        H  0.97592342  0.21714055  0.68602385     0.09100
H140        H  0.03922375  0.21830621  0.81202344     0.06600
H141        H  0.00337969  0.31213813  0.75201065     0.06500
C142        C  0.73151278  0.02588848  0.78154697     0.03500
C143        C  0.71316230  0.00899745  0.74543556    -0.12600
C144        C  0.72984333  0.98828037  0.71168266     0.01000
C145        C  0.76540568  0.98531465  0.71414187    -0.11200
C146        C  0.78420617  0.00328936  0.74868873     0.03500
C147        C  0.76702918  0.02335460  0.78260274    -0.10600
H148        H  0.68587073  0.01228758  0.74376729     0.09100
H149        H  0.77858367  0.96851907  0.68957209     0.06600
H150        H  0.78123011  0.03671610  0.81016130     0.06500
C151        C  0.98481332  0.26602627  0.28715545     0.03500
C152        C  0.00275067  0.28453365  0.25212663    -0.12600
C153        C  0.02196337  0.26779654  0.21681423     0.01000
C154        C  0.02342766  0.23218070  0.21707953    -0.11200
C155        C  0.00566949  0.21316684  0.25181310     0.03500
C156        C  0.98617640  0.23040660  0.28646065    -0.10600
H157        H  0.00237122  0.31203834  0.25289203     0.09100
H158        H  0.03829330  0.21925278  0.18987361     0.06600
H159        H  0.97123905  0.21614759  0.31228174     0.06500
O160        O  0.05240490  0.99795191  0.20493085    -0.72500
O161        O  0.95036497  0.99991464  0.20673602    -0.73500
O162        O  0.00288264  0.04993500  0.20671670    -0.62100
O163        O  0.00024413  0.94805309  0.20457513    -0.70600
O164        O  0.99985899  0.94781084  0.28431326    -0.70100
O165        O  0.00392759  0.04934938  0.28637228    -0.61400
O166        O  0.95099943  0.00021942  0.28644428    -0.73900
O167        O  0.05259426  0.99682552  0.28460705    -0.72700
Cu168      Cu  0.00142162  0.99900658  0.20292085     1.04600
Cu169      Cu  0.00185282  0.99851370  0.28814790     1.04300
C170        C  0.06869000  0.99716723  0.24465976     0.93600
C171        C  0.93448861  0.00027574  0.24692822     0.92800
C172        C  0.00418115  0.06582879  0.24678371     0.84900
C173        C  0.99958775  0.93179177  0.24431822     0.91200
C174        C  0.73408882  0.01989499  0.21049669     0.03500
C175        C  0.71593931  0.00269277  0.24660098    -0.12600
C176        C  0.73296673  0.98526974  0.28339017     0.01000
C177        C  0.76871285  0.98543221  0.28387835    -0.11200
C178        C  0.78726475  0.00157976  0.24723523     0.03500
C179        C  0.76976081  0.01884908  0.21074382    -0.10600
H180        H  0.68840605  0.00293205  0.24603940     0.09100
H181        H  0.78223405  0.97280474  0.31263988     0.06600
H182        H  0.78395687  0.03158113  0.18258347     0.06500
C183        C  0.97550501  0.73150590  0.21739954     0.03500
C184        C  0.99256494  0.71424007  0.25435879    -0.12600
C185        C  0.01200792  0.73210184  0.28843183     0.01000
C186        C  0.01331271  0.76769303  0.28600852    -0.11200
C187        C  0.99598003  0.78524238  0.24966269     0.03500
C188        C  0.97753290  0.76701245  0.21513860    -0.10600
H189        H  0.99052892  0.68684496  0.25665909     0.09100
H190        H  0.02848879  0.78179468  0.31172532     0.06600
H191        H  0.96479725  0.78053382  0.18643627     0.06500
C192        C  0.26960418  0.97716821  0.21494783     0.03500
C193        C  0.23395197  0.97839283  0.21417572    -0.12600
C194        C  0.21590488  0.99783163  0.24786986     0.01000
C195        C  0.23392010  0.01702802  0.28192062    -0.11200
C196        C  0.26956414  0.01551042  0.28457047     0.03500
C197        C  0.28714469  0.99501358  0.25124832    -0.10600
H198        H  0.22012091  0.96427813  0.18704027     0.09100
H199        H  0.22004808  0.03351937  0.30612062     0.06600
H200        H  0.31444894  0.99238606  0.25399614     0.06500
O201        O  0.08101060  0.37049314  0.95024321    -0.72500
O202        O  0.13098361  0.42318232  0.05207541    -0.73500
O203        O  0.13091968  0.42273706  0.95033666    -0.62100
O204        O  0.08048328  0.37123446  0.05218010    -0.70600
O205        O  0.12122022  0.33250490  0.05279209    -0.70100
O206        O  0.17179513  0.38414070  0.95026856    -0.61400
O207        O  0.17162327  0.38437745  0.05236201    -0.73900
O208        O  0.12204035  0.33203923  0.95061652    -0.72700
Cu209      Cu  0.10443531  0.39824313  0.00121996     1.04600
Cu210      Cu  0.14804978  0.35688001  0.00157635     1.04300
C211        C  0.09383656  0.34293958  0.93409102     0.93600
C212        C  0.15940888  0.41228034  0.06808049     0.92800
C213        C  0.15927624  0.41183426  0.93419645     0.84900
C214        C  0.09279209  0.34362751  0.06863917     0.91200
O215        O  0.63043191  0.08231743  0.05024849    -0.72500
O216        O  0.57872942  0.13288995  0.94895461    -0.73500
O217        O  0.63095711  0.08333585  0.94861073    -0.62100
O218        O  0.57824247  0.13189659  0.05129466    -0.70600
O219        O  0.61739640  0.17241647  0.05245096    -0.70100
O220        O  0.66992589  0.12409702  0.94911574    -0.61400
O221        O  0.61773802  0.17356991  0.95002593    -0.73900
O222        O  0.66963537  0.12281073  0.05123707    -0.72700
Cu223      Cu  0.60322397  0.10623260  0.99975163     1.04600
Cu224      Cu  0.64499110  0.14967770  0.00078226     1.04300
C225        C  0.65836021  0.09430336  0.06652615     0.93600
C226        C  0.59012619  0.16119059  0.93314624     0.92800
C227        C  0.65876104  0.09589441  0.93262007     0.84900
C228        C  0.58959412  0.15981523  0.06847392     0.91200
O229        O  0.87625601  0.66770185  0.05271680    -0.72500
O230        O  0.82755642  0.61559511  0.94950224    -0.73500
O231        O  0.82680863  0.61494365  0.05129651    -0.62100
O232        O  0.87697981  0.66847795  0.95072464    -0.70600
O233        O  0.91710234  0.62887824  0.94881721    -0.70100
O234        O  0.86906002  0.57767504  0.05364583    -0.61400
O235        O  0.86760330  0.57618048  0.95122647    -0.73900
O236        O  0.91802605  0.63010821  0.05066970    -0.72700
Cu237      Cu  0.85045386  0.64303258  0.00101936     1.04600
Cu238      Cu  0.89437417  0.60186735  0.00101539     1.04300
C239        C  0.90501438  0.65718605  0.06794723     0.93600
C240        C  0.83958282  0.58742829  0.93436414     0.92800
C241        C  0.84026044  0.58816401  0.06872134     0.84900
C242        C  0.90489432  0.65696034  0.93393387     0.91200
O243        O  0.33105893  0.87441960  0.94423956    -0.72500
O244        O  0.38184555  0.82634428  0.04845406    -0.73500
O245        O  0.32914306  0.87531770  0.04688602    -0.62100
O246        O  0.38449736  0.82568884  0.94669160    -0.70600
O247        O  0.42199079  0.86801216  0.94624737    -0.70100
O248        O  0.36804579  0.91608357  0.04750669    -0.61400
O249        O  0.42063314  0.86725791  0.04834515    -0.73900
O250        O  0.36886897  0.91621589  0.94554106    -0.72700
Cu251      Cu  0.35526071  0.84899349  0.99644975     1.04600
Cu252      Cu  0.39618209  0.89331345  0.99693589     1.04300
C253        C  0.34172177  0.90299309  0.92844493     0.93600
C254        C  0.40936681  0.83909870  0.06489285     0.92800
C255        C  0.34028397  0.90352503  0.06358908     0.84900
C256        C  0.41190131  0.83919695  0.93080113     0.91200
O257        O  0.13121401  0.58485593  0.44999151    -0.72500
O258        O  0.07803506  0.63441273  0.55160136    -0.73500
O259        O  0.07838600  0.63339815  0.44949182    -0.62100
O260        O  0.13089783  0.58527541  0.55210702    -0.70600
O261        O  0.17004441  0.62580749  0.55110816    -0.70100
O262        O  0.11598547  0.67563714  0.45077349    -0.61400
O263        O  0.11725313  0.67489633  0.55235821    -0.73900
O264        O  0.16895104  0.62673328  0.44859461    -0.72700
Cu265      Cu  0.10332466  0.60803409  0.50085983     1.04600
Cu266      Cu  0.14443236  0.65218192  0.50071192     1.04300
C267        C  0.15826934  0.59819080  0.43266544     0.93600
C268        C  0.08927249  0.66262639  0.56808090     0.92800
C269        C  0.08877769  0.66219455  0.43433623     0.84900
C270        C  0.15883857  0.59765543  0.56780720     0.91200
O271        O  0.38058389  0.16793081  0.55191505    -0.72500
O272        O  0.32752088  0.11549520  0.45324431    -0.73500
O273        O  0.33005887  0.11662956  0.55534839    -0.62100
O274        O  0.37820422  0.16720622  0.45022257    -0.70600
O275        O  0.41954353  0.12910305  0.45114427    -0.70100
O276        O  0.36873902  0.07581029  0.55098843    -0.61400
O277        O  0.36929609  0.07777055  0.44872699    -0.73900
O278        O  0.41966944  0.12753634  0.55250696    -0.72700
Cu279      Cu  0.35265094  0.14315975  0.50274891     1.04600
Cu280      Cu  0.39567503  0.10112853  0.50089444     1.04300
C281        C  0.40863239  0.15607135  0.56775738     0.93600
C282        C  0.34045249  0.08876332  0.43476566     0.92800
C283        C  0.34151739  0.08797085  0.56924220     0.84900
C284        C  0.40686194  0.15655263  0.43468510     0.91200
O285        O  0.86900459  0.41416055  0.45036095    -0.72500
O286        O  0.92174949  0.36591651  0.55183447    -0.73500
O287        O  0.92098807  0.36485872  0.44986122    -0.62100
O288        O  0.86934979  0.41510463  0.55231845    -0.70600
O289        O  0.83038697  0.37436290  0.55252996    -0.70100
O290        O  0.88264555  0.32330208  0.45206762    -0.61400
O291        O  0.88275042  0.32521845  0.55400368    -0.73900
O292        O  0.83044429  0.37301712  0.44994250    -0.72700
Cu293      Cu  0.89660280  0.39141837  0.50105325     1.04600
Cu294      Cu  0.85516488  0.34754686  0.50218160     1.04300
C295        C  0.84157934  0.40135412  0.43372758     0.93600
C296        C  0.91067971  0.33799007  0.56921067     0.92800
C297        C  0.90993009  0.33618425  0.43503844     0.84900
C298        C  0.84164775  0.40257937  0.56880429     0.91200
O299        O  0.62209324  0.83297012  0.54907677    -0.72500
O300        O  0.66937286  0.88555956  0.44627130    -0.73500
O301        O  0.67119918  0.88615643  0.54768747    -0.62100
O302        O  0.62010639  0.83335598  0.44731914    -0.70600
O303        O  0.57950606  0.87224144  0.44786370    -0.70100
O304        O  0.62905532  0.92357915  0.55053848    -0.61400
O305        O  0.62917379  0.92482711  0.44804277    -0.73900
O306        O  0.58021322  0.87076607  0.54978432    -0.72700
Cu307      Cu  0.64711524  0.85818620  0.49757419     1.04600
Cu308      Cu  0.60303916  0.89923441  0.49910323     1.04300
C309        C  0.59364585  0.84340191  0.56533022     0.93600
C310        C  0.65708163  0.91343411  0.43078507     0.92800
C311        C  0.65795306  0.91312261  0.56500579     0.84900
C312        C  0.59178292  0.84455420  0.43145678     0.91200
C313        C  0.27361617  0.03781591  0.36919952    -0.20900
C314        C  0.28797544  0.03479634  0.32286142    -0.09000
C315        C  0.31961686  0.05058930  0.31384770     0.29900
C316        C  0.33677662  0.06767032  0.35075119    -0.20900
C317        C  0.32218057  0.07057164  0.39656535    -0.09000
C318        C  0.29025407  0.05601018  0.40545195     0.29900
F319        F  0.27562806  0.05860311  0.44957429    -0.19500
H320        H  0.24957603  0.02575652  0.37769665     0.18300
H321        H  0.36118206  0.07938920  0.34327252     0.18300
F322        F  0.33349840  0.05064687  0.26912205    -0.19500
C323        C  0.27583329  0.92608592  0.16108776    -0.20900
C324        C  0.28821208  0.95771410  0.17716824    -0.09000
C325        C  0.31745034  0.97129031  0.15505738     0.29900
C326        C  0.33393916  0.95349090  0.11836853    -0.20900
C327        C  0.32161492  0.92191249  0.10217883    -0.09000
C328        C  0.29211095  0.90843486  0.12385877     0.29900
F329        F  0.27890644  0.87823772  0.10935518    -0.19500
H330        H  0.25347581  0.91486632  0.17747962     0.18300
H331        H  0.35636505  0.96478688  0.10226440     0.18300
F332        F  0.32950659  0.00240316  0.16751324    -0.19500
C333        C  0.03150020  0.72565987  0.37378862    -0.20900
C334        C  0.03139925  0.71371697  0.32605229    -0.09000
C335        C  0.05058183  0.68463765  0.31451080     0.29900
C336        C  0.06896095  0.66775551  0.35017169    -0.20900
C337        C  0.06914832  0.67998325  0.39745670    -0.09000
C338        C  0.05039939  0.70904759  0.40920251     0.29900
F339        F  0.04994843  0.72094635  0.45505399    -0.19500
H340        H  0.01676783  0.74777820  0.38372954     0.18300
H341        H  0.08361951  0.64546587  0.34072278     0.18300
F342        F  0.05260304  0.67322997  0.26850681    -0.19500
C343        C  0.90749214  0.70411630  0.12863305    -0.20900
C344        C  0.92317186  0.67625256  0.10609806    -0.09000
C345        C  0.95602191  0.66667442  0.12097600     0.29900
C346        C  0.97252061  0.68452201  0.15754018    -0.20900
C347        C  0.95688707  0.71234464  0.17988537    -0.09000
C348        C  0.92410590  0.72201833  0.16517959     0.29900
F349        F  0.90782164  0.74828675  0.18679713    -0.19500
H350        H  0.88218320  0.71197825  0.11824590     0.18300
H351        H  0.99793831  0.67693086  0.16785669     0.18300
F352        F  0.97254067  0.64031197  0.10000610    -0.19500
C353        C  0.70524046  0.91777823  0.37277076    -0.20900
C354        C  0.67572205  0.93215618  0.39270891    -0.09000
C355        C  0.66482279  0.96400778  0.37581984     0.29900
C356        C  0.68363927  0.98120511  0.34064158    -0.20900
C357        C  0.71333757  0.96686873  0.32104152    -0.09000
C358        C  0.72368233  0.93466194  0.33717454     0.29900
F359        F  0.75103993  0.91885530  0.31762004    -0.19500
H360        H  0.71407154  0.89309120  0.38438654     0.18300
H361        H  0.67509567  0.00600224  0.32908720     0.18300
F362        F  0.63617555  0.97871584  0.39327283    -0.19500
C363        C  0.68696277  0.02399718  0.15061121    -0.20900
C364        C  0.71551442  0.03877445  0.17261476    -0.09000
C365        C  0.72530527  0.07184918  0.15919361     0.29900
C366        C  0.70668630  0.08965866  0.12466962    -0.20900
C367        C  0.67787026  0.07500653  0.10298028    -0.09000
C368        C  0.66824790  0.04180787  0.11631150     0.29900
F369        F  0.64089235  0.02628827  0.09615187    -0.19500
H370        H  0.67914207  0.99842570  0.15988970     0.18300
H371        H  0.71467200  0.11516633  0.11534929     0.18300
F372        F  0.75214384  0.08746989  0.18056818    -0.19500
C373        C  0.12384998  0.99483602  0.28881444    -0.20900
C374        C  0.10634910  0.99705344  0.24485969    -0.09000
C375        C  0.12524980  0.99972374  0.20192732     0.29900
C376        C  0.16074181  0.00032141  0.20329705    -0.20900
C377        C  0.17818508  0.99808594  0.24723942    -0.09000
C378        C  0.15932022  0.99528298  0.29013440     0.29900
F379        F  0.17506028  0.99202815  0.33331980    -0.19500
H380        H  0.11008908  0.99258726  0.32244534     0.18300
H381        H  0.17463938  0.00285115  0.16981971     0.18300
F382        F  0.10963515  0.00202315  0.15854663    -0.19500
C383        C  0.98932247  0.87719430  0.28710345    -0.20900
C384        C  0.99844325  0.89424802  0.24457923    -0.09000
C385        C  0.00657046  0.87503924  0.20334564     0.29900
C386        C  0.00578463  0.83955090  0.20516318    -0.20900
C387        C  0.99694341  0.82270401  0.24791380    -0.09000
C388        C  0.98847216  0.84182605  0.28880174     0.29900
F389        F  0.97847676  0.82628847  0.33007168    -0.19500
H390        H  0.98250057  0.89126529  0.31917034     0.18300
H391        H  0.01246054  0.82515919  0.17330636     0.18300
F392        F  0.01589158  0.89037275  0.16160802    -0.19500
C393        C  0.84298879  0.00808407  0.28959912    -0.20900
C394        C  0.82495127  0.00063436  0.24731487    -0.09000
C395        C  0.84315812  0.99238970  0.20533721     0.29900
C396        C  0.87867803  0.99254456  0.20549656    -0.20900
C397        C  0.89681423  0.00042154  0.24759795    -0.09000
C398        C  0.87853263  0.00791568  0.28994702     0.29900
F399        F  0.89484630  0.01565109  0.33155975    -0.19500
H400        H  0.82950300  0.01456531  0.32233534     0.18300
H401        H  0.89200102  0.98604690  0.17264127     0.18300
F402        F  0.82662788  0.98328636  0.16445653    -0.19500
C403        C  0.96795540  0.27379709  0.37333760    -0.20900
C404        C  0.96499052  0.28381579  0.32493984    -0.09000
C405        C  0.94320657  0.31090425  0.31325723     0.29900
C406        C  0.92536228  0.32791598  0.34945556    -0.20900
C407        C  0.92865747  0.31796094  0.39755570    -0.09000
C408        C  0.94984740  0.29068009  0.40942316     0.29900
F409        F  0.95343755  0.28082001  0.45593272    -0.19500
H410        H  0.98470520  0.25318514  0.38327073     0.18300
H411        H  0.90872367  0.34873069  0.33994974     0.18300
F412        F  0.93852749  0.32040703  0.26681207    -0.19500
C413        C  0.09102201  0.29861521  0.13181850    -0.20900
C414        C  0.07427677  0.32447492  0.10645451    -0.09000
C415        C  0.04010539  0.33168717  0.11796274     0.29900
C416        C  0.02338668  0.31336408  0.15409769    -0.20900
C417        C  0.04021985  0.28749173  0.17928852    -0.09000
C418        C  0.07430794  0.28037450  0.16790352     0.29900
F419        F  0.09179761  0.25635362  0.19250428    -0.19500
H420        H  0.11734987  0.29268266  0.12412995     0.18300
H421        H  0.99700809  0.31903586  0.16192229     0.18300
F422        F  0.02256332  0.35594331  0.09386457    -0.19500
C423        C  0.00536530  0.15806180  0.20655929    -0.20900
C424        C  0.00657827  0.17537263  0.25078904    -0.09000
C425        C  0.00832819  0.15622755  0.29351775     0.29900
C426        C  0.00769852  0.12075961  0.29180678    -0.20900
C427        C  0.00581447  0.10347677  0.24760165    -0.09000
C428        C  0.00529048  0.12260546  0.20479875     0.29900
F429        F  0.00436577  0.10724468  0.16109045    -0.19500
H430        H  0.00381586  0.17198113  0.17306056     0.18300
H431        H  0.00873641  0.10682098  0.32534407     0.18300
F432        F  0.01134973  0.17164560  0.33700223    -0.19500
C433        C  0.72450006  0.96613194  0.62740547    -0.20900
C434        C  0.71054734  0.96961008  0.67386681    -0.09000
C435        C  0.67871462  0.95442211  0.68365477     0.29900
C436        C  0.66151869  0.93644528  0.64771895    -0.20900
C437        C  0.67606937  0.93245296  0.60207734    -0.09000
C438        C  0.70765449  0.94737340  0.59201320     0.29900
F439        F  0.72177538  0.94449184  0.54760284    -0.19500
H440        H  0.74849197  0.97807505  0.61828842     0.18300
H441        H  0.63714713  0.92487742  0.65585300     0.18300
F442        F  0.66469455  0.95570895  0.72825626    -0.19500
C443        C  0.68852613  0.02704169  0.84701815    -0.20900
C444        C  0.71324914  0.04427962  0.81999630    -0.09000
C445        C  0.72056331  0.07840047  0.83069648     0.29900
C446        C  0.70300714  0.09498526  0.86767856    -0.20900
C447        C  0.67792723  0.07781836  0.89453686    -0.09000
C448        C  0.67111393  0.04345723  0.88406144     0.29900
F449        F  0.64804682  0.02542648  0.91001624    -0.19500
H450        H  0.68300001  0.00055984  0.83973716     0.18300
H451        H  0.70870311  0.12143762  0.87480998     0.18300
F452        F  0.74396994  0.09589502  0.80459542    -0.19500
C453        C  0.98153434  0.31369223  0.65509801    -0.20900
C454        C  0.96744129  0.28524008  0.67816041    -0.09000
C455        C  0.93433647  0.27476414  0.66596497     0.29900
C456        C  0.91609016  0.29206316  0.63063812    -0.20900
C457        C  0.93029700  0.32030087  0.60703599    -0.09000
C458        C  0.96325134  0.33114534  0.61995206     0.29900
F459        F  0.97816141  0.35826654  0.59829001    -0.19500
H460        H  0.00703374  0.32214039  0.66380609     0.18300
H461        H  0.89066002  0.28339796  0.62199474     0.18300
F462        F  0.91926007  0.24830453  0.68899168    -0.19500
C463        C  0.07584218  0.28080264  0.83275190    -0.20900
C464        C  0.04118765  0.28652251  0.82433325    -0.09000
C465        C  0.02391714  0.31080622  0.85219457     0.29900
C466        C  0.04120660  0.32914399  0.88765062    -0.20900
C467        C  0.07594801  0.32350886  0.89613938    -0.09000
C468        C  0.09318255  0.29913870  0.86814481     0.29900
F469        F  0.12694781  0.29349957  0.87409216    -0.19500
H470        H  0.08963298  0.26244293  0.81128841     0.18300
H471        H  0.02725657  0.34750180  0.90889134     0.18300
F472        F  0.99013720  0.31620147  0.84592087    -0.19500
C473        C  0.30190305  0.01529665  0.63860125    -0.20900
C474        C  0.28541255  0.03266676  0.67590436    -0.09000
C475        C  0.28815338  0.06813923  0.67888261     0.29900
C476        C  0.30652933  0.08606624  0.64403170    -0.20900
C477        C  0.32288180  0.06874793  0.60637249    -0.09000
C478        C  0.32059489  0.03314037  0.60404708     0.29900
F479        F  0.33548786  0.01571487  0.56756125    -0.19500
H480        H  0.30008088  0.98789250  0.63616360     0.18300
H481        H  0.30837951  0.11345388  0.64677650     0.18300
F482        F  0.27373329  0.08524395  0.71606549    -0.19500
C483        C  0.27533748  0.92477213  0.83403758    -0.20900
C484        C  0.28611927  0.95719033  0.81937758    -0.09000
C485        C  0.31526813  0.97147668  0.84077556     0.29900
C486        C  0.33329101  0.95351175  0.87561537    -0.20900
C487        C  0.32252405  0.92111642  0.89048651    -0.09000
C488        C  0.29320937  0.90687663  0.86926737     0.29900
F489        F  0.28166653  0.87570454  0.88237253    -0.19500
H490        H  0.25313630  0.91311174  0.81790398     0.18300
H491        H  0.35550875  0.96532106  0.89147817     0.18300
F492        F  0.32579033  0.00332766  0.82928829    -0.19500
C493        C  0.87626844  0.00392480  0.70813698    -0.20900
C494        C  0.89357337  0.99951187  0.75189600    -0.09000
C495        C  0.87447475  0.99501183  0.79438029     0.29900
C496        C  0.83897377  0.99587787  0.79298804    -0.20900
C497        C  0.82179347  0.00103691  0.74938795    -0.09000
C498        C  0.84079445  0.00471753  0.70677931     0.29900
F499        F  0.82515776  0.01033543  0.66401447    -0.19500
H500        H  0.89020182  0.00737948  0.67485148     0.18300
H501        H  0.82483217  0.99238028  0.82609814     0.18300
F502        F  0.88993778  0.98956711  0.83729669    -0.19500
C503        C  0.99644126  0.12272826  0.79223247    -0.20900
C504        C  0.00238420  0.10410306  0.74988965    -0.09000
C505        C  0.01071623  0.12182990  0.70739235     0.29900
C506        C  0.01272064  0.15730997  0.70753367    -0.20900
C507        C  0.00663841  0.17579961  0.74988511    -0.09000
C508        C  0.99844754  0.15814972  0.79230843     0.29900
F509        F  0.99116796  0.17519264  0.83350409    -0.19500
H510        H  0.98979040  0.10988861  0.82539800     0.18300
H511        H  0.01922055  0.17040591  0.67449678     0.18300
F512        F  0.01740502  0.10501121  0.66581665    -0.19500
C513        C  0.12061686  0.99278960  0.70994425    -0.20900
C514        C  0.10325706  0.99764802  0.75367504    -0.09000
C515        C  0.12235246  0.00189691  0.79612820     0.29900
C516        C  0.15790041  0.00146306  0.79445983    -0.20900
C517        C  0.17515469  0.99680097  0.75066102    -0.09000
C518        C  0.15610023  0.99228380  0.70834464     0.29900
F519        F  0.17170370  0.98642837  0.66555204    -0.19500
H520        H  0.10672131  0.98910026  0.67673033     0.18300
H521        H  0.17201784  0.00519876  0.82747908     0.18300
F522        F  0.10686526  0.00683942  0.83922787    -0.19500
C523        C  0.06516644  0.72704596  0.66397373    -0.20900
C524        C  0.03292569  0.71539145  0.67834611    -0.09000
C525        C  0.01896439  0.68675234  0.65518706     0.29900
C526        C  0.03738273  0.66977032  0.61947603    -0.20900
C527        C  0.06985177  0.68118451  0.60555839    -0.09000
C528        C  0.08336189  0.71041721  0.62783922     0.29900
F529        F  0.11432838  0.72291147  0.61527127    -0.19500
H530        H  0.07661647  0.74891867  0.68125341     0.18300
H531        H  0.02602919  0.64775011  0.60245544     0.18300
F532        F  0.98717120  0.67563064  0.66608819    -0.19500
C533        C  0.96285495  0.72133855  0.87580190    -0.20900
C534        C  0.96009017  0.71255065  0.82690210    -0.09000
C535        C  0.93852585  0.68547294  0.81364989     0.29900
C536        C  0.92050146  0.66745066  0.84877072    -0.20900
C537        C  0.92343474  0.67634736  0.89734742    -0.09000
C538        C  0.94461196  0.70342202  0.91079975     0.29900
F539        F  0.94795667  0.71217226  0.95781341    -0.19500
H540        H  0.97944178  0.74188370  0.88695267     0.18300
H541        H  0.90403774  0.64667642  0.83806769     0.18300
F542        F  0.93414140  0.67702169  0.76670988    -0.19500
C543        C  0.96713628  0.84179545  0.76509758    -0.20900
C544        C  0.99763147  0.82395269  0.75775209    -0.09000
C545        C  0.02806797  0.84234740  0.75117114     0.29900
C546        C  0.02770151  0.87782298  0.75087368    -0.20900
C547        C  0.99718779  0.89539339  0.75764987    -0.09000
C548        C  0.96688993  0.87729928  0.76511638     0.29900
F549        F  0.93704828  0.89397399  0.77137772    -0.19500
H550        H  0.94338446  0.82821369  0.76990075     0.18300
H551        H  0.05127161  0.89164911  0.74554192     0.18300
F552        F  0.05822608  0.82607176  0.74593085    -0.19500
C553        C  0.83160482  0.53462216  0.88531899    -0.20900
C554        C  0.82091724  0.56760985  0.89736166    -0.09000
C555        C  0.79217763  0.58107311  0.87400438     0.29900
C556        C  0.77489365  0.56200173  0.83936228    -0.20900
C557        C  0.78557969  0.52907158  0.82733440    -0.09000
C558        C  0.81410675  0.51544815  0.85090337     0.29900
F559        F  0.82457618  0.48327119  0.84171536    -0.19500
H560        H  0.85337471  0.52339788  0.90296345     0.18300
H561        H  0.75327839  0.57326259  0.82137900     0.18300
F562        F  0.78081131  0.61279931  0.88409614    -0.19500
C563        C  0.77751523  0.42280817  0.66717866    -0.20900
C564        C  0.78641369  0.45628648  0.67923305    -0.09000
C565        C  0.81362155  0.47195760  0.65479311     0.29900
C566        C  0.83146054  0.45434581  0.61912591    -0.20900
C567        C  0.82255451  0.42082062  0.60694027    -0.09000
C568        C  0.79537848  0.40513831  0.63162703     0.29900
F569        F  0.78630867  0.37252951  0.62216674    -0.19500
H570        H  0.75694438  0.41008238  0.68591934     0.18300
H571        H  0.85210785  0.46716033  0.60069528     0.18300
F572        F  0.82243565  0.50461299  0.66444652    -0.19500
C573        C  0.52225187  0.18694276  0.84294131    -0.20900
C574        C  0.53743659  0.21528516  0.82086552    -0.09000
C575        C  0.56998219  0.22563604  0.83609675     0.29900
C576        C  0.58670798  0.20806469  0.87270281    -0.20900
C577        C  0.57157436  0.17968366  0.89482157    -0.09000
C578        C  0.53903083  0.16925636  0.87944557     0.29900
F579        F  0.52312306  0.14222419  0.89986546    -0.19500
H580        H  0.49706958  0.17866820  0.83231176     0.18300
H581        H  0.61182110  0.21654270  0.88332969     0.18300
F582        F  0.58614712  0.25214929  0.81472035    -0.19500
C583        C  0.48018195  0.18552404  0.64966423    -0.20900
C584        C  0.46547319  0.21386590  0.67206980    -0.09000
C585        C  0.43208682  0.22315636  0.65969500     0.29900
C586        C  0.41390570  0.20430790  0.62574599    -0.20900
C587        C  0.42845107  0.17571450  0.60360889    -0.09000
C588        C  0.46198513  0.16659309  0.61577970     0.29900
F589        F  0.47746914  0.13965293  0.59469016    -0.19500
H590        H  0.50598243  0.17813304  0.65820799     0.18300
H591        H  0.38816663  0.21192645  0.61726393     0.18300
F592        F  0.41654090  0.24976581  0.68155607    -0.19500
C593        C  0.20392274  0.41612382  0.87027168    -0.20900
C594        C  0.17765850  0.43143820  0.89676455    -0.09000
C595        C  0.16921308  0.46550495  0.88693881     0.29900
C596        C  0.18691405  0.48371924  0.85169850    -0.20900
C597        C  0.21326323  0.46844054  0.82545263    -0.09000
C598        C  0.22141930  0.43428575  0.83477166     0.29900
F599        F  0.24564358  0.41813255  0.80858641    -0.19500
H600        H  0.21066394  0.38985164  0.87655037     0.18300
H601        H  0.18028750  0.51000914  0.84531077     0.18300
F602        F  0.14426950  0.48153060  0.91188097    -0.19500
C603        C  0.22551885  0.57410553  0.66122459    -0.20900
C604        C  0.21280819  0.54299613  0.67862674    -0.09000
C605        C  0.18262793  0.52992690  0.65856550     0.29900
C606        C  0.16537821  0.54793761  0.62290865    -0.20900
C607        C  0.17794903  0.57910573  0.60562096    -0.09000
C608        C  0.20855030  0.59187261  0.62491110     0.29900
F609        F  0.22224531  0.62144938  0.60883244    -0.19500
H610        H  0.24863805  0.58487633  0.67595957     0.18300
H611        H  0.14219239  0.53713008  0.60844059     0.18300
F612        F  0.17029344  0.49913591  0.67203318    -0.19500
C613        C  0.62034944  0.49109549  0.79101371    -0.20900
C614        C  0.60379170  0.49821241  0.74734454    -0.09000
C615        C  0.62362334  0.50281816  0.70558783     0.29900
C616        C  0.65906091  0.50040132  0.70778439    -0.20900
C617        C  0.67555490  0.49334461  0.75143712    -0.09000
C618        C  0.65576848  0.48854429  0.79312848     0.29900
F619        F  0.67053987  0.48051537  0.83572640    -0.19500
H620        H  0.60584039  0.48701860  0.82366379     0.18300
H621        H  0.67372468  0.50462196  0.67530588     0.18300
F622        F  0.60896116  0.51007710  0.66265535    -0.19500
C623        C  0.48932587  0.37797574  0.78431730    -0.20900
C624        C  0.49983163  0.39598942  0.74325670    -0.09000
C625        C  0.51114680  0.37778231  0.70265207     0.29900
C626        C  0.51170908  0.34231256  0.70335949    -0.20900
C627        C  0.50122695  0.32443862  0.74445677    -0.09000
C628        C  0.48990530  0.34253992  0.78495048     0.29900
F629        F  0.47852460  0.32592612  0.82463472    -0.19500
H630        H  0.48024023  0.39132812  0.81587502     0.18300
H631        H  0.52073939  0.32872990  0.67195570     0.18300
F632        F  0.52239504  0.39414426  0.66267608    -0.19500
C633        C  0.37634437  0.47145370  0.75308055    -0.20900
C634        C  0.39466722  0.50115692  0.74305211    -0.09000
C635        C  0.37730749  0.53168027  0.73533704     0.29900
C636        C  0.34183352  0.53244761  0.73780711    -0.20900
C637        C  0.32316808  0.50271519  0.74769560    -0.09000
C638        C  0.34082620  0.47205040  0.75506779     0.29900
F639        F  0.32382399  0.44252562  0.76301032    -0.19500
H640        H  0.38960070  0.44776080  0.75912369     0.18300
H641        H  0.32893530  0.55642210  0.73259361     0.18300
F642        F  0.39473505  0.56084183  0.72654342    -0.19500
C643        C  0.46813717  0.77506822  0.86902901    -0.20900
C644        C  0.46902466  0.78764356  0.82162881    -0.09000
C645        C  0.45148802  0.81794979  0.81111561     0.29900
C646        C  0.43351585  0.83492741  0.84722050    -0.20900
C647        C  0.43194897  0.82166655  0.89388094    -0.09000
C648        C  0.44953118  0.79173358  0.90478837     0.29900
F649        F  0.44903928  0.77893606  0.95011764    -0.19500
H650        H  0.48186552  0.75219281  0.87844911     0.18300
H651        H  0.41993569  0.85803437  0.83843279     0.18300
F652        F  0.45036471  0.83040627  0.76563689    -0.19500
C653        C  0.56422178  0.81238112  0.68641425    -0.20900
C654        C  0.54210391  0.78576692  0.67352078    -0.09000
C655        C  0.53762253  0.77798596  0.62441563     0.29900
C656        C  0.55471444  0.79680186  0.58920252    -0.20900
C657        C  0.57622958  0.82360122  0.60242171    -0.09000
C658        C  0.58113061  0.83121970  0.65113310     0.29900
F659        F  0.60220647  0.85690878  0.66446085    -0.19500
H660        H  0.56838844  0.81860373  0.72390439     0.18300
H661        H  0.55082894  0.79078730  0.55155949     0.18300
F662        F  0.51580502  0.75312178  0.61035295    -0.19500
C663        C  0.49367399  0.65920338  0.70293819    -0.20900
C664        C  0.50043877  0.67672003  0.74588103    -0.09000
C665        C  0.50587470  0.65808810  0.78833171     0.29900
C666        C  0.50482881  0.62265857  0.78754611    -0.20900
C667        C  0.49849697  0.60503433  0.74450655    -0.09000
C668        C  0.49257645  0.62373657  0.70211338     0.29900
F669        F  0.48538352  0.60792242  0.65990986    -0.19500
H670        H  0.48893792  0.67306151  0.66997739     0.18300
H671        H  0.50958680  0.60900251  0.82066016     0.18300
F672        F  0.51333186  0.67405544  0.83032523    -0.19500
C673        C  0.22557286  0.43930595  0.16038960    -0.20900
C674        C  0.21408464  0.47185019  0.17320027    -0.09000
C675        C  0.18467067  0.48461211  0.15085751     0.29900
C676        C  0.16701113  0.46497778  0.11719776    -0.20900
C677        C  0.17837143  0.43236398  0.10451390    -0.09000
C678        C  0.20811129  0.41977183  0.12635671     0.29900
F679        F  0.22031446  0.38850689  0.11532980    -0.19500
H680        H  0.24792109  0.42867952  0.17732398     0.18300
H681        H  0.14453603  0.47560128  0.10060445     0.18300
F682        F  0.17339520  0.51644007  0.16048880    -0.19500
C683        C  0.16885861  0.54662395  0.38235829    -0.20900
C684        C  0.17716620  0.58040597  0.39393519    -0.09000
C685        C  0.20339504  0.59668507  0.36800664     0.29900
C686        C  0.22098797  0.57926940  0.33189923    -0.20900
C687        C  0.21274379  0.54547554  0.32063087    -0.09000
C688        C  0.18639730  0.52929223  0.34617811     0.29900
F689        F  0.17823506  0.49637772  0.33720570    -0.19500
H690        H  0.14892920  0.53336070  0.40170926     0.18300
H691        H  0.24092266  0.59234606  0.31228382     0.18300
F692        F  0.21183620  0.62954223  0.37690324    -0.19500
C693        C  0.47689587  0.81556950  0.15632538    -0.20900
C694        C  0.46343054  0.78554705  0.17606679    -0.09000
C695        C  0.43186589  0.77351355  0.15915303     0.29900
C696        C  0.41463715  0.79096617  0.12293945    -0.20900
C697        C  0.42812748  0.82101232  0.10323559    -0.09000
C698        C  0.45942738  0.83330589  0.12066486     0.29900
F699        F  0.47338405  0.86239232  0.10330935    -0.19500
H700        H  0.50126852  0.82528024  0.16820407     0.18300
H701        H  0.39043628  0.78103537  0.11069955     0.18300
F702        F  0.41703394  0.74549428  0.17851096    -0.19500
C703        C  0.53932194  0.83451949  0.38263943    -0.20900
C704        C  0.57288165  0.82536234  0.39416583    -0.09000
C705        C  0.58778884  0.79770852  0.36997685     0.29900
C706        C  0.56931433  0.77955570  0.33560753    -0.20900
C707        C  0.53572866  0.78854328  0.32439773    -0.09000
C708        C  0.52086692  0.81634883  0.34818911     0.29900
F709        F  0.48822568  0.82544337  0.33916943    -0.19500
H710        H  0.52710288  0.85558263  0.40072562     0.18300
H711        H  0.58150299  0.75862638  0.31715564     0.18300
F712        F  0.62036345  0.78836394  0.37888335    -0.19500
C713        C  0.77222136  0.53911818  0.13472618    -0.20900
C714        C  0.78789677  0.53245685  0.17934149    -0.09000
C715        C  0.82125414  0.54491331  0.18689628     0.29900
C716        C  0.83845669  0.56227942  0.15025116    -0.20900
C717        C  0.82231333  0.56913414  0.10647865    -0.09000
C718        C  0.78889100  0.55794589  0.09919149     0.29900
F719        F  0.77268616  0.56446570  0.05712140    -0.19500
H720        H  0.74702508  0.52953791  0.12685192     0.18300
H721        H  0.86408313  0.57139505  0.15662087     0.18300
F722        F  0.83694169  0.54170781  0.23009010    -0.19500
C723        C  0.81301673  0.47060707  0.34822039    -0.20900
C724        C  0.78754748  0.45401730  0.32185367    -0.09000
C725        C  0.77991628  0.41989918  0.33219836     0.29900
C726        C  0.79746639  0.40285360  0.36868777    -0.20900
C727        C  0.82288265  0.41954892  0.39538929    -0.09000
C728        C  0.83046858  0.45373506  0.38468191     0.29900
F729        F  0.85424881  0.47124910  0.41000384    -0.19500
H730        H  0.81895865  0.49702276  0.34112911     0.18300
H731        H  0.79133549  0.37649575  0.37577561     0.18300
F732        F  0.75601843  0.40291093  0.30640960    -0.19500
C733        C  0.37604271  0.49647755  0.29178099    -0.20900
C734        C  0.39541798  0.50496612  0.25095503    -0.09000
C735        C  0.37839179  0.51588422  0.20910789     0.29900
C736        C  0.34287960  0.51770660  0.20820334    -0.20900
C737        C  0.32363366  0.50900248  0.24891797    -0.09000
C738        C  0.34052521  0.49839053  0.29082686     0.29900
F739        F  0.32261257  0.48879444  0.33035483    -0.19500
H740        H  0.38836797  0.48787053  0.32436625     0.18300
H741        H  0.33033860  0.52619596  0.17570546     0.18300
F742        F  0.39597031  0.52540805  0.16924757    -0.19500
C743        C  0.51206765  0.62295846  0.21254665    -0.20900
C744        C  0.50178288  0.60544213  0.25419840    -0.09000
C745        C  0.49175841  0.62423113  0.29493653     0.29900
C746        C  0.49216274  0.65970061  0.29377448    -0.20900
C747        C  0.50230183  0.67708886  0.25208474    -0.09000
C748        C  0.51240523  0.65842400  0.21142955     0.29900
F749        F  0.52328341  0.67447263  0.17099910    -0.19500
H750        H  0.52015998  0.60918461  0.18080707     0.18300
H751        H  0.48392628  0.67368228  0.32527034     0.18300
F752        F  0.48073332  0.60846393  0.33549741    -0.19500
C753        C  0.62368397  0.50189751  0.29915503    -0.20900
C754        C  0.60550504  0.49927534  0.25572880    -0.09000
C755        C  0.62389922  0.49612465  0.21235740     0.29900
C756        C  0.65937484  0.49522274  0.21274884    -0.20900
C757        C  0.67749280  0.49762974  0.25607704    -0.09000
C758        C  0.65929926  0.50120966  0.29942019     0.29900
F759        F  0.67590870  0.50497789  0.34187087    -0.19500
H760        H  0.61034986  0.50472665  0.33303112     0.18300
H761        H  0.67277562  0.49222324  0.17893480     0.18300
F762        F  0.60778480  0.49364052  0.16934446    -0.19500
C763        C  0.52181117  0.18318237  0.16061269    -0.20900
C764        C  0.53486703  0.21364170  0.17973207    -0.09000
C765        C  0.56655352  0.22549595  0.16281401     0.29900
C766        C  0.58389614  0.20796300  0.12664516    -0.20900
C767        C  0.57064849  0.17777684  0.10710995    -0.09000
C768        C  0.53954834  0.16522289  0.12516475     0.29900
F769        F  0.52605458  0.13567269  0.10865050    -0.19500
H770        H  0.49750763  0.17334631  0.17263339     0.18300
H771        H  0.60803854  0.21799390  0.11426448     0.18300
F772        F  0.58145718  0.25348320  0.18209962    -0.19500
C773        C  0.40903399  0.20252588  0.37273186    -0.20900
C774        C  0.42545994  0.17617321  0.39756758    -0.09000
C775        C  0.45968872  0.16902341  0.38660062     0.29900
C776        C  0.47676012  0.18761566  0.35125988    -0.20900
C777        C  0.46026400  0.21371282  0.32621072    -0.09000
C778        C  0.42617970  0.22113254  0.33735671     0.29900
F779        F  0.40912278  0.24566760  0.31313974    -0.19500
H780        H  0.38270243  0.20853334  0.38026489     0.18300
H781        H  0.50314412  0.18181073  0.34372967     0.18300
F782        F  0.47696661  0.14443167  0.41037361    -0.19500
C783        C  0.49262496  0.34232475  0.21067506    -0.20900
C784        C  0.49767724  0.32408168  0.25341820    -0.09000
C785        C  0.50391119  0.34211336  0.29628390     0.29900
C786        C  0.50437876  0.37763947  0.29627055    -0.20900
C787        C  0.49901622  0.39594330  0.25353226    -0.09000
C788        C  0.49338911  0.37779484  0.21052253     0.29900
F789        F  0.48815324  0.39417565  0.16824720    -0.19500
H790        H  0.48765451  0.32905980  0.17725661     0.18300
H791        H  0.50928965  0.39081708  0.32977194     0.18300
F792        F  0.51051562  0.32543333  0.33795481    -0.19500
loop_ 
_geom_bond_atom_site_label_1 
_geom_bond_atom_site_label_2 
_geom_bond_distance 
_geom_bond_site_symmetry_2 
_ccdc_geom_bond_type 
C1            C2   1.407       .  A
C1            C6   1.406       .  A
C1          C764   1.492       .  S
C2            C3   1.405       .  A
C2            H7   1.082       .  S
C3            C4   1.403       .  A
C3          C784   1.485       .  S
C4            C5   1.402       .  A
C4            H8   1.083       .  S
C5            C6   1.404       .  A
C5          C777   1.481       .  S
C6            H9   1.083       .  S
O10         Cu18   2.010       .  S
O10          C20   1.278       .  A
O11         Cu18   2.013       .  S
O11          C21   1.279       .  A
O12         Cu18   2.021       .  S
O12          C22   1.280       .  A
O13         Cu18   2.020       .  S
O13          C23   1.280       .  A
O14         Cu19   2.004       .  S
O14          C23   1.277       .  A
O15         Cu19   2.001       .  S
O15          C22   1.277       .  A
O16         Cu19   2.005       .  S
O16          C21   1.278       .  A
O17         Cu19   2.002       .  S
O17          C20   1.277       .  A
Cu18        Cu19   2.368       .  S
C20         C744   1.480       .  S
C21         C787   1.484       .  S
C22         C754   1.487       .  S
C23         C734   1.485       .  S
C24          C25   1.402       .  A
C24          C29   1.404       .  A
C24         C724   1.479       .  S
C25          C26   1.403       .  A
C25          H30   1.083       .  S
C26          C27   1.405       .  A
C26         C757   1.485       .  S
C27          C28   1.409       .  A
C27          H31   1.082       .  S
C28          C29   1.408       .  A
C28         C714   1.498       .  S
C29          H32   1.082       .  S
C33          C34   1.403       .  A
C33          C38   1.404       .  A
C33         C707   1.483       .  S
C34          C35   1.406       .  A
C34          H39   1.083       .  S
C35          C36   1.405       .  A
C35         C694   1.486       .  S
C36          C37   1.402       .  A
C36          H40   1.083       .  S
C37          C38   1.402       .  A
C37         C747   1.479       .  S
C38          H41   1.084       .  S
C42          C43   1.403       .  A
C42          C47   1.404       .  A
C42         C737   1.482       .  S
C43          C44   1.404       .  A
C43          H48   1.084       .  S
C44          C45   1.404       .  A
C44         C687   1.483       .  S
C45          C46   1.406       .  A
C45          H49   1.083       .  S
C46          C47   1.406       .  A
C46         C674   1.488       .  S
C47          H50   1.084       .  S
C51          C52   1.405       .  A
C51          C56   1.404       .  A
C51         C654   1.483       .  S
C52          C53   1.405       .  A
C52          H57   1.083       .  S
C53          C54   1.404       .  A
C53         C644   1.488       .  S
C54          C55   1.403       .  A
C54          H58   1.083       .  S
C55          C56   1.404       .  A
C55         C664   1.481       .  S
C56          H59   1.084       .  S
O60         Cu68   2.008       .  S
O60          C70   1.279       .  A
O61         Cu68   2.003       .  S
O61          C71   1.278       .  A
O62         Cu68   2.004       .  S
O62          C72   1.278       .  A
O63         Cu68   2.000       .  S
O63          C73   1.275       .  A
O64         Cu69   2.014       .  S
O64          C73   1.278       .  A
O65         Cu69   2.015       .  S
O65          C72   1.279       .  A
O66         Cu69   2.003       .  S
O66          C71   1.277       .  A
O67         Cu69   2.000       .  S
O67          C70   1.277       .  A
Cu68        Cu69   2.372       .  S
C70         C667   1.480       .  S
C71         C624   1.478       .  S
C72         C614   1.485       .  S
C73         C634   1.464       .  S
C74          C75   1.404       .  A
C74          C79   1.403       .  A
C74         C637   1.485       .  S
C75          C76   1.405       .  A
C75          H80   1.083       .  S
C76          C77   1.408       .  A
C76         C604   1.490       .  S
C77          C78   1.405       .  A
C77          H81   1.083       .  S
C78          C79   1.403       .  A
C78         C597   1.484       .  S
C79          H82   1.083       .  S
C83          C84   1.403       .  A
C83          C88   1.405       .  A
C83         C584   1.483       .  S
C84          C85   1.401       .  A
C84          H89   1.084       .  S
C85          C86   1.402       .  A
C85         C627   1.477       .  S
C86          C87   1.404       .  A
C86          H90   1.083       .  S
C87          C88   1.406       .  A
C87         C574   1.486       .  S
C88          H91   1.083       .  S
C92          C93   1.404       .  A
C92          C97   1.405       .  A
C92         C564   1.485       .  S
C93          C94   1.404       .  A
C93          H98   1.083       .  S
C94          C95   1.405       .  A
C94         C557   1.486       .  S
C95          C96   1.405       .  A
C95          H99   1.083       .  S
C96          C97   1.406       .  A
C96         C617   1.486       .  S
C97         H100   1.084       .  S
C101        C102   1.404       .  A
C101        C106   1.405       .  A
C101        C534   1.484       .  S
C102        C103   1.403       .  A
C102        H107   1.084       .  S
C103        C104   1.403   1_655  A
C103        C544   1.483       .  S
C104        C105   1.405       .  A
C104        H108   1.083       .  S
C105        C106   1.405   1_455  A
C105        C524   1.487       .  S
C106        H109   1.083       .  S
O110       Cu118   2.005       .  S
O110        C120   1.278       .  A
O111       Cu118   1.999   1_455  S
O111        C121   1.277       .  A
O112       Cu118   2.007       .  S
O112        C122   1.277       .  A
O113       Cu118   2.011   1_545  S
O113        C123   1.278   1_655  A
O114       Cu119   2.008       .  S
O114        C123   1.278   1_655  A
O115       Cu119   2.006   1_565  S
O115        C122   1.276       .  A
O116       Cu119   2.013   1_465  S
O116        C121   1.279       .  A
O117       Cu119   2.007       .  S
O117        C120   1.278   1_545  A
Cu118      Cu119   2.372   1_565  S
C120        C494   1.482       .  S
C121        C514   1.483       .  S
C122        C547   1.463       .  S
C123        C504   1.484       .  S
C124        C125   1.403       .  A
C124        C129   1.406       .  A
C124        C484   1.484       .  S
C125        C126   1.397   1_565  A
C125        H130   1.084       .  S
C126        C127   1.401       .  A
C126        C474   1.471       .  S
C127        C128   1.406   1_545  A
C127        H131   1.084       .  S
C128        C129   1.406       .  A
C128        C517   1.484       .  S
C129        H132   1.083       .  S
C133        C134   1.404       .  A
C133        C138   1.403   1_655  A
C133        C454   1.481       .  S
C134        C135   1.403   1_655  A
C134        H139   1.083       .  S
C135        C136   1.405       .  A
C135        C507   1.482       .  S
C136        C137   1.404       .  A
C136        H140   1.084       .  S
C137        C138   1.402       .  A
C137        C464   1.479       .  S
C138        H141   1.084       .  S
C142        C143   1.403       .  A
C142        C147   1.401       .  A
C142        C444   1.477       .  S
C143        C144   1.406   1_545  A
C143        H148   1.083       .  S
C144        C145   1.406       .  A
C144        C434   1.490       .  S
C145        C146   1.403   1_565  A
C145        H149   1.083       .  S
C146        C147   1.404       .  A
C146        C497   1.481       .  S
C147        H150   1.084       .  S
C151        C152   1.404   1_655  A
C151        C156   1.404       .  A
C151        C404   1.484       .  S
C152        C153   1.403       .  A
C152        H157   1.083       .  S
C153        C154   1.404       .  A
C153        C417   1.483       .  S
C154        C155   1.406       .  A
C154        H158   1.083       .  S
C155        C156   1.406   1_455  A
C155        C424   1.489       .  S
C156        H159   1.083       .  S
O160       Cu168   2.007       .  S
O160        C170   1.278       .  A
O161       Cu168   2.011   1_655  S
O161        C171   1.279   1_565  A
O162       Cu168   2.009   1_545  S
O162        C172   1.278       .  A
O163       Cu168   2.007       .  S
O163        C173   1.277   1_455  A
O164       Cu169   2.001   1_655  S
O164        C173   1.278       .  A
O165       Cu169   2.004   1_545  S
O165        C172   1.278       .  A
O166       Cu169   2.002   1_645  S
O166        C171   1.277       .  A
O167       Cu169   1.999       .  S
O167        C170   1.277       .  A
Cu168      Cu169   2.369       .  S
C170        C374   1.481       .  S
C171        C397   1.482       .  S
C172        C427   1.484       .  S
C173        C384   1.479       .  S
C174        C175   1.404       .  A
C174        C179   1.404       .  A
C174        C364   1.484       .  S
C175        C176   1.404   1_545  A
C175        H180   1.083       .  S
C176        C177   1.406       .  A
C176        C357   1.487       .  S
C177        C178   1.403   1_565  A
C177        H181   1.083       .  S
C178        C179   1.404       .  A
C178        C394   1.483       .  S
C179        H182   1.083       .  S
C183        C184   1.405       .  A
C183        C188   1.402       .  A
C183        C347   1.480       .  S
C184        C185   1.405   1_655  A
C184        H189   1.083       .  S
C185        C186   1.404       .  A
C185        C334   1.485       .  S
C186        C187   1.403   1_455  A
C186        H190   1.084       .  S
C187        C188   1.400       .  A
C187        C387   1.476       .  S
C188        H191   1.084       .  S
C192        C193   1.403       .  A
C192        C197   1.409       .  A
C192        C324   1.492       .  S
C193        C194   1.403       .  A
C193        H198   1.083       .  S
C194        C195   1.402   1_565  A
C194        C377   1.484       .  S
C195        C196   1.405       .  A
C195        H199   1.083       .  S
C196        C197   1.410   1_545  A
C196        C314   1.494       .  S
C197        H200   1.082       .  S
O201       Cu209   2.012   1_556  S
O201        C211   1.279       .  A
O202       Cu209   2.012       .  S
O202        C212   1.279       .  A
O203       Cu209   2.002   1_556  S
O203        C213   1.277       .  A
O204       Cu209   2.004       .  S
O204        C214   1.277       .  A
O205       Cu210   2.013       .  S
O205        C214   1.280       .  A
O206       Cu210   2.012   1_556  S
O206        C213   1.279       .  A
O207       Cu210   2.005       .  S
O207        C212   1.277       .  A
O208       Cu210   2.001   1_556  S
O208        C211   1.277       .  A
Cu209      Cu210   2.369       .  S
C211        C467   1.480       .  S
C212        C677   1.485       .  S
C213        C594   1.482       .  S
C214        C414   1.483       .  S
O215       Cu223   2.004   1_554  S
O215        C225   1.277       .  A
O216       Cu223   2.009       .  S
O216        C226   1.278       .  A
O217       Cu223   2.006       .  S
O217        C227   1.278       .  A
O218       Cu223   2.010   1_554  S
O218        C228   1.278       .  A
O219       Cu224   2.010       .  S
O219        C228   1.279       .  A
O220       Cu224   2.010   1_556  S
O220        C227   1.278       .  A
O221       Cu224   2.009   1_556  S
O221        C226   1.279       .  A
O222       Cu224   2.009       .  S
O222        C225   1.278       .  A
Cu223      Cu224   2.368   1_556  S
C225        C367   1.483       .  S
C226        C577   1.485       .  S
C227        C447   1.482       .  S
C228        C767   1.486       .  S
O229       Cu237   2.009       .  S
O229        C239   1.278       .  A
O230       Cu237   2.006   1_556  S
O230        C240   1.278       .  A
O231       Cu237   2.008       .  S
O231        C241   1.277       .  A
O232       Cu237   2.009   1_556  S
O232        C242   1.277       .  A
O233       Cu238   2.007   1_556  S
O233        C242   1.276       .  A
O234       Cu238   2.008       .  S
O234        C241   1.277       .  A
O235       Cu238   2.011   1_556  S
O235        C240   1.279       .  A
O236       Cu238   2.001       .  S
O236        C239   1.277       .  A
Cu237      Cu238   2.373       .  S
C239        C344   1.482       .  S
C240        C554   1.484       .  S
C241        C717   1.469       .  S
C242        C537   1.464       .  S
O243       Cu251   2.007       .  S
O243        C253   1.277       .  A
O244       Cu251   1.998   1_554  S
O244        C254   1.277       .  A
O245       Cu251   2.024   1_554  S
O245        C255   1.280       .  A
O246       Cu251   2.019       .  S
O246        C256   1.279       .  A
O247       Cu252   2.002       .  S
O247        C256   1.275       .  A
O248       Cu252   2.001   1_554  S
O248        C255   1.277       .  A
O249       Cu252   2.008   1_554  S
O249        C254   1.278       .  A
O250       Cu252   2.005       .  S
O250        C253   1.279       .  A
Cu251      Cu252   2.370       .  S
C253        C487   1.483       .  S
C254        C697   1.481       .  S
C255        C327   1.488       .  S
C256        C647   1.467       .  S
O257       Cu265   2.009       .  S
O257        C267   1.279       .  A
O258       Cu265   2.014       .  S
O258        C268   1.279       .  A
O259       Cu265   2.003       .  S
O259        C269   1.276       .  A
O260       Cu265   2.005       .  S
O260        C270   1.278       .  A
O261       Cu266   2.017       .  S
O261        C270   1.279       .  A
O262       Cu266   2.011       .  S
O262        C269   1.277       .  A
O263       Cu266   2.001       .  S
O263        C268   1.277       .  A
O264       Cu266   2.008       .  S
O264        C267   1.278       .  A
Cu265      Cu266   2.370       .  S
C267        C684   1.484       .  S
C268        C527   1.484       .  S
C269        C337   1.464       .  S
C270        C607   1.487       .  S
O271       Cu279   2.006       .  S
O271        C281   1.278       .  A
O272       Cu279   2.013       .  S
O272        C282   1.278       .  A
O273       Cu279   2.003       .  S
O273        C283   1.277       .  A
O274       Cu279   2.007       .  S
O274        C284   1.278       .  A
O275       Cu280   2.000       .  S
O275        C284   1.277       .  A
O276       Cu280   2.011       .  S
O276        C283   1.278       .  A
O277       Cu280   2.005       .  S
O277        C282   1.277       .  A
O278       Cu280   2.007       .  S
O278        C281   1.278       .  A
Cu279      Cu280   2.371       .  S
C281        C587   1.482       .  S
C282        C317   1.468       .  S
C283        C477   1.473       .  S
C284        C774   1.480       .  S
O285       Cu293   1.994       .  S
O285        C295   1.276       .  A
O286       Cu293   1.998       .  S
O286        C296   1.276       .  A
O287       Cu293   2.010       .  S
O287        C297   1.277       .  A
O288       Cu293   2.012       .  S
O288        C298   1.279       .  A
O289       Cu294   2.006       .  S
O289        C298   1.278       .  A
O290       Cu294   2.005       .  S
O290        C297   1.276       .  A
O291       Cu294   2.009       .  S
O291        C296   1.279       .  A
O292       Cu294   2.018       .  S
O292        C295   1.279       .  A
Cu293      Cu294   2.371       .  S
C295        C727   1.482       .  S
C296        C457   1.481       .  S
C297        C407   1.464       .  S
C298        C567   1.484       .  S
O299       Cu307   1.999       .  S
O299        C309   1.275       .  A
O300       Cu307   1.988       .  S
O300        C310   1.276       .  A
O301       Cu307   2.011       .  S
O301        C311   1.278       .  A
O302       Cu307   2.008       .  S
O302        C312   1.278       .  A
O303       Cu308   2.003       .  S
O303        C312   1.277       .  A
O304       Cu308   2.002       .  S
O304        C311   1.276       .  A
O305       Cu308   2.019       .  S
O305        C310   1.280       .  A
O306       Cu308   2.010       .  S
O306        C309   1.277       .  A
Cu307      Cu308   2.374       .  S
C309        C657   1.461       .  S
C310        C354   1.482       .  S
C311        C437   1.465       .  S
C312        C704   1.482       .  S
C313        C314   1.411       .  A
C313        C318   1.398       .  A
C313        H320   1.083       .  S
C314        C315   1.412       .  A
C315        C316   1.399       .  A
C315        F322   1.357       .  S
C316        C317   1.401       .  A
C316        H321   1.084       .  S
C317        C318   1.400       .  A
C318        F319   1.358       .  S
C323        C324   1.409       .  A
C323        C328   1.401       .  A
C323        H330   1.083       .  S
C324        C325   1.407       .  A
C325        C326   1.397       .  A
C325        F332   1.357   1_565  S
C326        C327   1.407       .  A
C326        H331   1.083       .  S
C327        C328   1.409       .  A
C328        F329   1.357       .  S
C333        C334   1.407       .  A
C333        C338   1.398       .  A
C333        H340   1.083       .  S
C334        C335   1.410       .  A
C335        C336   1.397       .  A
C335        F342   1.357       .  S
C336        C337   1.399       .  A
C336        H341   1.084       .  S
C337        C338   1.402       .  A
C338        F339   1.358       .  S
C343        C344   1.407       .  A
C343        C348   1.398       .  A
C343        H350   1.083       .  S
C344        C345   1.410       .  A
C345        C346   1.395       .  A
C345        F352   1.357       .  S
C346        C347   1.402       .  A
C346        H351   1.083       .  S
C347        C348   1.407       .  A
C348        F349   1.358       .  S
C353        C354   1.406       .  A
C353        C358   1.394       .  A
C353        H360   1.083       .  S
C354        C355   1.408       .  A
C355        C356   1.399       .  A
C355        F362   1.357       .  S
C356        C357   1.408       .  A
C356        H361   1.083   1_565  S
C357        C358   1.407       .  A
C358        F359   1.357       .  S
C363        C364   1.404       .  A
C363        C368   1.396       .  A
C363        H370   1.083   1_545  S
C364        C365   1.407       .  A
C365        C366   1.398       .  A
C365        F372   1.358       .  S
C366        C367   1.407       .  A
C366        H371   1.083       .  S
C367        C368   1.410       .  A
C368        F369   1.357       .  S
C373        C374   1.406       .  A
C373        C378   1.396       .  A
C373        H380   1.083       .  S
C374        C375   1.409       .  A
C375        C376   1.397   1_565  A
C375        F382   1.357   1_565  S
C376        C377   1.405   1_545  A
C376        H381   1.083       .  S
C377        C378   1.408       .  A
C378        F379   1.358       .  S
C383        C384   1.405       .  A
C383        C388   1.394       .  A
C383        H390   1.083       .  S
C384        C385   1.410   1_655  A
C385        C386   1.399       .  A
C385        F392   1.358       .  S
C386        C387   1.404   1_455  A
C386        H391   1.083       .  S
C387        C388   1.403       .  A
C388        F389   1.357       .  S
C393        C394   1.404       .  A
C393        C398   1.398       .  A
C393        H400   1.083       .  S
C394        C395   1.406   1_545  A
C395        C396   1.397       .  A
C395        F402   1.357       .  S
C396        C397   1.405   1_565  A
C396        H401   1.083       .  S
C397        C398   1.410       .  A
C398        F399   1.358       .  S
C403        C404   1.407       .  A
C403        C408   1.398       .  A
C403        H410   1.083       .  S
C404        C405   1.409       .  A
C405        C406   1.398       .  A
C405        F412   1.357       .  S
C406        C407   1.400       .  A
C406        H411   1.084       .  S
C407        C408   1.402       .  A
C408        F409   1.358       .  S
C413        C414   1.405       .  A
C413        C418   1.396       .  A
C413        H420   1.083       .  S
C414        C415   1.411       .  A
C415        C416   1.399       .  A
C415        F422   1.358       .  S
C416        C417   1.405       .  A
C416        H421   1.084   1_455  S
C417        C418   1.406       .  A
C418        F419   1.357       .  S
C423        C424   1.406       .  A
C423        C428   1.397       .  A
C423        H430   1.083       .  S
C424        C425   1.409       .  A
C425        C426   1.398       .  A
C425        F432   1.357       .  S
C426        C427   1.406       .  A
C426        H431   1.083       .  S
C427        C428   1.409       .  A
C428        F429   1.357       .  S
C433        C434   1.409       .  A
C433        C438   1.397       .  A
C433        H440   1.083       .  S
C434        C435   1.412       .  A
C435        C436   1.398       .  A
C435        F442   1.357       .  S
C436        C437   1.400       .  A
C436        H441   1.084       .  S
C437        C438   1.400       .  A
C438        F439   1.358       .  S
C443        C444   1.402       .  A
C443        C448   1.395       .  A
C443        H450   1.084       .  S
C444        C445   1.405       .  A
C445        C446   1.400       .  A
C445        F452   1.358       .  S
C446        C447   1.408       .  A
C446        H451   1.083       .  S
C447        C448   1.409       .  A
C448        F449   1.357       .  S
C453        C454   1.403       .  A
C453        C458   1.396       .  A
C453        H460   1.083   1_655  S
C454        C455   1.406       .  A
C455        C456   1.396       .  A
C455        F462   1.357       .  S
C456        C457   1.405       .  A
C456        H461   1.083       .  S
C457        C458   1.410       .  A
C458        F459   1.358       .  S
C463        C464   1.402       .  A
C463        C468   1.397       .  A
C463        H470   1.083       .  S
C464        C465   1.406       .  A
C465        C466   1.398       .  A
C465        F472   1.358   1_455  S
C466        C467   1.405       .  A
C466        H471   1.083       .  S
C467        C468   1.410       .  A
C468        F469   1.357       .  S
C473        C474   1.401       .  A
C473        C478   1.397       .  A
C473        H480   1.083   1_545  S
C474        C475   1.403       .  A
C475        C476   1.398       .  A
C475        F482   1.358       .  S
C476        C477   1.405       .  A
C476        H481   1.083       .  S
C477        C478   1.406       .  A
C478        F479   1.357       .  S
C483        C484   1.404       .  A
C483        C488   1.398       .  A
C483        H490   1.083       .  S
C484        C485   1.408       .  A
C485        C486   1.395       .  A
C485        F492   1.358   1_565  S
C486        C487   1.405       .  A
C486        H491   1.083       .  S
C487        C488   1.410       .  A
C488        F489   1.357       .  S
C493        C494   1.406   1_545  A
C493        C498   1.396       .  A
C493        H500   1.083       .  S
C494        C495   1.410       .  A
C495        C496   1.397       .  A
C495        F502   1.357       .  S
C496        C497   1.404   1_565  A
C496        H501   1.083       .  S
C497        C498   1.407       .  A
C498        F499   1.358       .  S
C503        C504   1.406   1_655  A
C503        C508   1.397       .  A
C503        H510   1.083       .  S
C504        C505   1.410       .  A
C505        C506   1.399       .  A
C505        F512   1.357       .  S
C506        C507   1.404       .  A
C506        H511   1.083       .  S
C507        C508   1.406   1_455  A
C508        F509   1.358       .  S
C513        C514   1.407       .  A
C513        C518   1.396       .  A
C513        H520   1.083       .  S
C514        C515   1.409   1_565  A
C515        C516   1.399       .  A
C515        F522   1.357       .  S
C516        C517   1.405   1_545  A
C516        H521   1.083       .  S
C517        C518   1.407       .  A
C518        F519   1.358       .  S
C523        C524   1.405       .  A
C523        C528   1.396       .  A
C523        H530   1.083       .  S
C524        C525   1.409       .  A
C525        C526   1.399       .  A
C525        F532   1.357   1_455  S
C526        C527   1.406       .  A
C526        H531   1.083       .  S
C527        C528   1.410       .  A
C528        F529   1.357       .  S
C533        C534   1.407       .  A
C533        C538   1.398       .  A
C533        H540   1.083       .  S
C534        C535   1.410       .  A
C535        C536   1.398       .  A
C535        F542   1.357       .  S
C536        C537   1.400       .  A
C536        H541   1.083       .  S
C537        C538   1.402       .  A
C538        F539   1.358       .  S
C543        C544   1.406       .  A
C543        C548   1.398       .  A
C543        H550   1.083       .  S
C544        C545   1.409   1_655  A
C545        C546   1.397       .  A
C545        F552   1.358       .  S
C546        C547   1.400   1_455  A
C546        H551   1.084       .  S
C547        C548   1.402       .  A
C548        F549   1.358       .  S
C553        C554   1.407       .  A
C553        C558   1.399       .  A
C553        H560   1.083       .  S
C554        C555   1.409       .  A
C555        C556   1.397       .  A
C555        F562   1.357       .  S
C556        C557   1.404       .  A
C556        H561   1.083       .  S
C557        C558   1.408       .  A
C558        F559   1.358       .  S
C563        C564   1.403       .  A
C563        C568   1.398       .  A
C563        H570   1.083       .  S
C564        C565   1.408       .  A
C565        C566   1.399       .  A
C565        F572   1.358       .  S
C566        C567   1.406       .  A
C566        H571   1.083       .  S
C567        C568   1.410       .  A
C568        F569   1.357       .  S
C573        C574   1.405       .  A
C573        C578   1.399       .  A
C573        H580   1.083       .  S
C574        C575   1.408       .  A
C575        C576   1.397       .  A
C575        F582   1.357       .  S
C576        C577   1.406       .  A
C576        H581   1.083       .  S
C577        C578   1.410       .  A
C578        F579   1.357       .  S
C583        C584   1.404       .  A
C583        C588   1.397       .  A
C583        H590   1.083       .  S
C584        C585   1.407       .  A
C585        C586   1.397       .  A
C585        F592   1.358       .  S
C586        C587   1.406       .  A
C586        H591   1.083       .  S
C587        C588   1.410       .  A
C588        F589   1.357       .  S
C593        C594   1.405       .  A
C593        C598   1.398       .  A
C593        H600   1.083       .  S
C594        C595   1.410       .  A
C595        C596   1.398       .  A
C595        F602   1.357       .  S
C596        C597   1.403       .  A
C596        H601   1.083       .  S
C597        C598   1.408       .  A
C598        F599   1.358       .  S
C603        C604   1.407       .  A
C603        C608   1.400       .  A
C603        H610   1.083       .  S
C604        C605   1.408       .  A
C605        C606   1.397       .  A
C605        F612   1.357       .  S
C606        C607   1.406       .  A
C606        H611   1.083       .  S
C607        C608   1.409       .  A
C608        F609   1.357       .  S
C613        C614   1.407       .  A
C613        C618   1.398       .  A
C613        H620   1.083       .  S
C614        C615   1.409       .  A
C615        C616   1.399       .  A
C615        F622   1.357       .  S
C616        C617   1.405       .  A
C616        H621   1.083       .  S
C617        C618   1.407       .  A
C618        F619   1.358       .  S
C623        C624   1.405       .  A
C623        C628   1.396       .  A
C623        H630   1.083       .  S
C624        C625   1.409       .  A
C625        C626   1.397       .  A
C625        F632   1.358       .  S
C626        C627   1.403       .  A
C626        H631   1.083       .  S
C627        C628   1.405       .  A
C628        F629   1.357       .  S
C633        C634   1.400       .  A
C633        C638   1.398       .  A
C633        H640   1.084       .  S
C634        C635   1.401       .  A
C635        C636   1.397       .  A
C635        F642   1.358       .  S
C636        C637   1.407       .  A
C636        H641   1.083       .  S
C637        C638   1.410       .  A
C638        F639   1.357       .  S
C643        C644   1.408       .  A
C643        C648   1.398       .  A
C643        H650   1.084       .  S
C644        C645   1.411       .  A
C645        C646   1.398       .  A
C645        F652   1.357       .  S
C646        C647   1.400       .  A
C646        H651   1.085       .  S
C647        C648   1.402       .  A
C648        F649   1.357       .  S
C653        C654   1.407       .  A
C653        C658   1.396       .  A
C653        H660   1.083       .  S
C654        C655   1.410       .  A
C655        C656   1.398       .  A
C655        F662   1.358       .  S
C656        C657   1.400       .  A
C656        H661   1.084       .  S
C657        C658   1.400       .  A
C658        F659   1.358       .  S
C663        C664   1.404       .  A
C663        C668   1.397       .  A
C663        H670   1.083       .  S
C664        C665   1.407       .  A
C665        C666   1.396       .  A
C665        F672   1.357       .  S
C666        C667   1.405       .  A
C666        H671   1.083       .  S
C667        C668   1.410       .  A
C668        F669   1.358       .  S
C673        C674   1.406       .  A
C673        C678   1.399       .  A
C673        H680   1.083       .  S
C674        C675   1.408       .  A
C675        C676   1.398       .  A
C675        F682   1.357       .  S
C676        C677   1.406       .  A
C676        H681   1.083       .  S
C677        C678   1.410       .  A
C678        F679   1.358       .  S
C683        C684   1.406       .  A
C683        C688   1.397       .  A
C683        H690   1.083       .  S
C684        C685   1.410       .  A
C685        C686   1.399       .  A
C685        F692   1.357       .  S
C686        C687   1.404       .  A
C686        H691   1.083       .  S
C687        C688   1.406       .  A
C688        F689   1.357       .  S
C693        C694   1.405       .  A
C693        C698   1.396       .  A
C693        H700   1.083       .  S
C694        C695   1.409       .  A
C695        C696   1.397       .  A
C695        F702   1.358       .  S
C696        C697   1.406       .  A
C696        H701   1.083       .  S
C697        C698   1.408       .  A
C698        F699   1.357       .  S
C703        C704   1.407       .  A
C703        C708   1.398       .  A
C703        H710   1.083       .  S
C704        C705   1.408       .  A
C705        C706   1.396       .  A
C705        F712   1.357       .  S
C706        C707   1.404       .  A
C706        H711   1.083       .  S
C707        C708   1.407       .  A
C708        F709   1.358       .  S
C713        C714   1.411       .  A
C713        C718   1.397       .  A
C713        H720   1.082       .  S
C714        C715   1.415       .  A
C715        C716   1.400       .  A
C715        F722   1.357       .  S
C716        C717   1.400       .  A
C716        H721   1.084       .  S
C717        C718   1.400       .  A
C718        F719   1.358       .  S
C723        C724   1.402       .  A
C723        C728   1.395       .  A
C723        H730   1.084       .  S
C724        C725   1.406       .  A
C725        C726   1.401       .  A
C725        F732   1.357       .  S
C726        C727   1.407       .  A
C726        H731   1.083       .  S
C727        C728   1.410       .  A
C728        F729   1.358       .  S
C733        C734   1.406       .  A
C733        C738   1.399       .  A
C733        H740   1.083       .  S
C734        C735   1.411       .  A
C735        C736   1.399       .  A
C735        F742   1.357       .  S
C736        C737   1.403       .  A
C736        H741   1.083       .  S
C737        C738   1.406       .  A
C738        F739   1.357       .  S
C743        C744   1.406       .  A
C743        C748   1.397       .  A
C743        H750   1.083       .  S
C744        C745   1.409       .  A
C745        C746   1.397       .  A
C745        F752   1.357       .  S
C746        C747   1.403       .  A
C746        H751   1.084       .  S
C747        C748   1.405       .  A
C748        F749   1.358       .  S
C753        C754   1.407       .  A
C753        C758   1.401       .  A
C753        H760   1.083       .  S
C754        C755   1.411       .  A
C755        C756   1.396       .  A
C755        F762   1.357       .  S
C756        C757   1.403       .  A
C756        H761   1.083       .  S
C757        C758   1.408       .  A
C758        F759   1.357       .  S
C763        C764   1.407       .  A
C763        C768   1.399       .  A
C763        H770   1.083       .  S
C764        C765   1.410       .  A
C765        C766   1.397       .  A
C765        F772   1.357       .  S
C766        C767   1.406       .  A
C766        H771   1.083       .  S
C767        C768   1.410       .  A
C768        F769   1.357       .  S
C773        C774   1.406       .  A
C773        C778   1.398       .  A
C773        H780   1.083       .  S
C774        C775   1.409       .  A
C775        C776   1.396       .  A
C775        F782   1.357       .  S
C776        C777   1.403       .  A
C776        H781   1.083       .  S
C777        C778   1.407       .  A
C778        F779   1.358       .  S
C783        C784   1.403       .  A
C783        C788   1.397       .  A
C783        H790   1.083       .  S
C784        C785   1.408       .  A
C785        C786   1.399       .  A
C785        F792   1.358       .  S
C786        C787   1.406       .  A
C786        H791   1.083       .  S
C787        C788   1.410       .  A
C788        F789   1.357       .  S
