geometry optimzed in LAMMPS
_audit_creation_date              2020-11-30 
_audit_creation_method            'lammps2cif' 
_symmetry_space_group_name_H-M    'P1' 
_symmetry_Int_Tables_number       1 
_symmetry_cell_setting            triclinic 
loop_ 
_symmetry_equiv_pos_as_xyz 
  x,y,z 
_cell_length_a                    49.58908104 
_cell_length_b                    28.871652895063875 
_cell_length_c                    41.33717592193474 
_cell_angle_alpha                 78.3742237240299 
_cell_angle_beta                  89.2183287009157 
_cell_angle_gamma                 89.13895664077468 
loop_ 
_atom_site_label 
_atom_site_type_symbol 
_atom_site_fract_x 
_atom_site_fract_y 
_atom_site_fract_z 
_atom_site_charge 
N1          N  0.25177663  0.56641849  0.50743702    -0.36200
N2          N  0.29288261  0.50166204  0.49202949    -0.56700
N3          N  0.25309999  0.42605595  0.01135082    -0.36200
N4          N  0.21182725  0.49247324  0.02050612    -0.56700
C5          C  0.27273858  0.59539306  0.49748780     0.27400
C6          C  0.22921469  0.59372640  0.50398832     0.27400
C7          C  0.27360405  0.40231614  0.99968222     0.27400
C8          C  0.23163762  0.39666874  0.01722306     0.27400
C9          C  0.30910809  0.53604218  0.49834903     0.36000
C10         C  0.30856238  0.46269096  0.49336700     0.36000
C11         C  0.19641584  0.52963443  0.02476980     0.36000
C12         C  0.19746852  0.45318788  0.03229476     0.36000
C13         C  0.26356993  0.64152506  0.48755613    -0.21500
C14         C  0.23605931  0.64047201  0.49144166    -0.21500
C15         C  0.26511306  0.35715991  0.99845492    -0.21500
C16         C  0.23919680  0.35322969  0.01031598    -0.21500
C17         C  0.33541039  0.51949043  0.50254043    -0.22500
C18         C  0.33513564  0.47313511  0.49907686    -0.22500
C19         C  0.17192300  0.51407576  0.03915225    -0.22500
C20         C  0.17256199  0.46560847  0.04380313    -0.22500
C21         C  0.30011495  0.58194642  0.50051648    -0.17900
C22         C  0.20298329  0.57878771  0.51473043    -0.17900
C23         C  0.20555370  0.40712956  0.02929941    -0.17900
C24         C  0.30101223  0.41630724  0.99597514    -0.17900
H25         H  0.27555529  0.67271712  0.47889952     0.15000
H26         H  0.22269179  0.67094209  0.48634563     0.15000
H27         H  0.27690805  0.32882090  0.99158825     0.15000
H28         H  0.22784610  0.32098051  0.01487586     0.15000
H29         H  0.35284983  0.53832748  0.50823814     0.13300
H30         H  0.35236184  0.44923536  0.50199141     0.13300
H31         H  0.15520291  0.53540932  0.04524656     0.13300
H32         H  0.15627651  0.44253834  0.05380445     0.13300
H33         H  0.25345390  0.53190023  0.52066056     0.26600
H34         H  0.25493890  0.45787726  0.01881606     0.26600
N35         N  0.49838052  0.05076180  0.06538162    -0.36200
N36         N  0.45547397  0.97921878  0.07502378    -0.56700
N37         N  0.49629308  0.91358508  0.06014062    -0.36200
N38         N  0.03825375  0.98613787  0.04981793    -0.56700
C39         C  0.47732289  0.07685994  0.07335350     0.27400
C40         C  0.01859849  0.08115598  0.05607186     0.27400
C41         C  0.47480668  0.88546937  0.06878862     0.27400
C42         C  0.02008548  0.88583382  0.06455757     0.27400
C43         C  0.43998756  0.01793226  0.07523186     0.36000
C44         C  0.43894932  0.94565996  0.06826501     0.36000
C45         C  0.05282226  0.02561350  0.03950190     0.36000
C46         C  0.05383222  0.94922933  0.04537221     0.36000
C47         C  0.48573756  0.12292431  0.07186785    -0.21500
C48         C  0.01106079  0.12406971  0.06398466    -0.21500
C49         C  0.48323146  0.83888142  0.07881772    -0.21500
C50         C  0.01332717  0.83880247  0.07621211    -0.21500
C51         C  0.41319735  0.00804845  0.07014715    -0.22500
C52         C  0.41260805  0.96231478  0.06540178    -0.22500
C53         C  0.07811948  0.01350594  0.02886101    -0.22500
C54         C  0.07873279  0.96509983  0.03248820    -0.22500
C55         C  0.44977762  0.06332710  0.07652708    -0.17900
C56         C  0.04446762  0.07144357  0.04299018    -0.17900
C57         C  0.04621330  0.90138898  0.05395376    -0.17900
C58         C  0.44768415  0.90018883  0.06502179    -0.17900
H59         H  0.47364776  0.15288726  0.07579574     0.15000
H60         H  0.02206341  0.15669601  0.05935103     0.15000
H61         H  0.47072545  0.80820889  0.08683271     0.15000
H62         H  0.02677750  0.80834507  0.08069584     0.15000
H63         H  0.39601132  0.03193345  0.06856151     0.13300
H64         H  0.39492535  0.94386968  0.05996779     0.13300
H65         H  0.09472062  0.03668757  0.02029207     0.13300
H66         H  0.09570805  0.94399863  0.02680901     0.13300
H67         H  0.49749759  0.01584770  0.06343399     0.26600
H68         H  0.49533504  0.94835567  0.04719715     0.26600
Zr69       Zr  0.11277247  0.18099652  0.49376319     2.17500
O70         O  0.12560148  0.10748115  0.47697071    -0.50900
O71         O  0.07852850  0.20564030  0.45150986    -0.74100
O72         O  0.07816742  0.12285951  0.01204822    -0.80900
O73         O  0.16647228  0.25565607  0.44159756    -0.82600
O74         O  0.06779719  0.12715037  0.06515639    -0.78300
O75         O  0.14276416  0.18803572  0.44469226    -0.89900
O76         O  0.05980198  0.27510502  0.45921040    -0.75900
O77         O  0.07891956  0.21568507  0.02330764    -0.85300
O78         O  0.11305325  0.26496068  0.47649037    -0.85000
O79         O  0.12385300  0.15589710  0.04953710    -0.71800
O80         O  0.15698302  0.20435052  0.00685365    -0.83900
Zr81       Zr  0.13625690  0.29589501  0.07841376     2.26400
Zr82       Zr  0.09097341  0.19146959  0.08031809     2.06300
Zr83       Zr  0.15635084  0.28901359  0.48954345     2.10000
Zr84       Zr  0.08112395  0.29903224  0.00570484     1.78800
O85         O  0.20544950  0.28220568  0.97413383    -0.92700
O86         O  0.03325020  0.28478249  0.01722421    -0.40500
O87         O  0.12480925  0.32295165  0.02085108    -0.77200
O88         O  0.09180373  0.27551853  0.06314366    -0.95900
O89         O  0.13451803  0.21206108  0.09541566    -0.89200
O90         O  0.16994827  0.26265833  0.04760828    -0.92000
C91         C  0.06256672  0.24151335  0.44317485     1.01700
C92         C  0.16010687  0.21887826  0.43059628     1.14700
C93         C  0.06503002  0.10940116  0.03948904     1.05500
O94         O  0.04501312  0.19111879  0.10184211    -0.94200
O95         O  0.08114445  0.22393568  0.12897323    -0.89900
O96         O  0.10566037  0.29041969  0.12699958    -0.83100
C97         C  0.08781650  0.26012772  0.14052860     1.12100
O98         O  0.19006938  0.11433149  0.04433496    -0.96100
Zr99       Zr  0.16758683  0.17903392  0.06420536     1.88900
O100        O  0.16823506  0.26537554  0.12260687    -0.72800
O101        O  0.10214359  0.12236549  0.12256525    -0.52000
O102        O  0.16053059  0.10399633  0.10228688    -0.96700
O103        O  0.21627362  0.18569634  0.05492639    -0.53900
O104        O  0.18511973  0.19427419  0.11571512    -0.73300
C105        C  0.18292361  0.22791920  0.13174762     0.99000
O106        O  0.12436889  0.36904097  0.09632983    -0.62100
O107        O  0.14345738  0.35513401  0.44575275    -0.56900
O108        O  0.17132836  0.35598194  0.05940337    -0.93600
O109        O  0.18169614  0.35293765  0.00606430    -0.92000
O110        O  0.07990925  0.36997520  0.46959783    -0.92400
O111        O  0.05851450  0.36520508  0.02355028    -0.91200
C112        C  0.18458152  0.36989102  0.03208884     1.17900
H113        H  0.11056062  0.27534352  0.45301047     0.33800
H114        H  0.07821607  0.28983560  0.07505792     0.44700
H115        H  0.18767596  0.27310806  0.05196732     0.38200
H116        H  0.12256643  0.12186379  0.05510433     0.34700
H117        H  0.02160496  0.29857012  0.50541187     0.26500
H118        H  0.11535047  0.13374171  0.13682321     0.32400
H119        H  0.17830770  0.09570106  0.11263500     0.38300
H120        H  0.06127641  0.37446871  0.46110339     0.32800
H121        H  0.13866733  0.38110953  0.45725658     0.31700
H122        H  0.21087235  0.25949091  0.48287084     0.33300
H123        H  0.22432265  0.16318569  0.07369389     0.32300
H124        H  0.07283552  0.38028442  0.03415005     0.36300
H125        H  0.14124289  0.38029233  0.10450629     0.29000
H126        H  0.10876791  0.09477008  0.46977329     0.33300
H127        H  0.18688445  0.12102921  0.02023658     0.36100
H128        H  0.16057358  0.36515952  0.43397340     0.28700
H129        H  0.12020054  0.39198075  0.07573536     0.41600
H130        H  0.03700682  0.22175936  0.09084720     0.31700
H131        H  0.03139424  0.28037203  0.04150995     0.39300
H132        H  0.22123579  0.21713715  0.05886675     0.31100
H133        H  0.08560670  0.11649843  0.13640114     0.31200
H134        H  0.12865776  0.08788160  0.99240278     0.31500
Zr135      Zr  0.38474477  0.18108610  0.09484556     2.17500
O136        O  0.37333369  0.10921844  0.13446084    -0.50900
O137        O  0.41838436  0.20588702  0.13059549    -0.74100
O138        O  0.41716435  0.11669103  0.09254033    -0.80900
O139        O  0.32803340  0.25463486  0.12349234    -0.82600
O140        O  0.42966599  0.12226754  0.03860864    -0.78300
O141        O  0.35343143  0.18824107  0.14070235    -0.89900
O142        O  0.43655200  0.27506555  0.10369152    -0.75900
O143        O  0.41909848  0.21283656  0.05582063    -0.85300
O144        O  0.38194539  0.26497009  0.08791889    -0.85000
O145        O  0.37511752  0.15459939  0.04438137    -0.71800
O146        O  0.34037472  0.20177818  0.07330648    -0.83900
Zr147      Zr  0.36324744  0.29586450  0.47536410     2.26400
Zr148      Zr  0.40879262  0.18933178  0.00503039     2.06300
Zr149      Zr  0.33843863  0.28570496  0.06589704     2.10000
Zr150      Zr  0.41637799  0.29625302  0.04943833     1.78800
O151        O  0.28939044  0.28118018  0.06890185    -0.92700
O152        O  0.46418073  0.28489062  0.03832145    -0.40500
O153        O  0.37270525  0.32009748  0.02734860    -0.77200
O154        O  0.40772375  0.27342345  0.99802978    -0.95900
O155        O  0.36489374  0.21198187  0.48303460    -0.89200
O156        O  0.32900481  0.26226801  0.01498333    -0.92000
C157        C  0.43413246  0.24135642  0.12901348     1.01700
C158        C  0.33519606  0.21870012  0.14539653     1.14700
C159        C  0.43047321  0.10291986  0.06916101     1.05500
O160        O  0.45701872  0.18625605  0.99357215    -0.94200
O161        O  0.41861622  0.21947677  0.44691754    -0.89900
O162        O  0.39376939  0.28643912  0.42918736    -0.83100
C163        C  0.41162634  0.25522606  0.42467558     1.12100
O164        O  0.30914207  0.11158146  0.05596570    -0.96100
Zr165      Zr  0.33174420  0.17873153  0.02173763     1.88900
O166        O  0.33068875  0.26699741  0.44000146    -0.72800
O167        O  0.40232833  0.12327525  0.47820658    -0.52000
O168        O  0.33709818  0.10499948  0.50691397    -0.96700
O169        O  0.28308985  0.18718722  0.02868012    -0.53900
O170        O  0.31431850  0.19617482  0.46660023    -0.73300
C171        C  0.31627690  0.22986169  0.44121795     0.99000
O172        O  0.37475305  0.36667460  0.43475193    -0.62100
O173        O  0.33892069  0.34665150  0.09905963    -0.56900
O174        O  0.33097663  0.36131352  0.47683259    -0.93600
O175        O  0.32228690  0.35829485  0.03354079    -0.92000
O176        O  0.41278181  0.36780520  0.07180018    -0.92400
O177        O  0.43497681  0.36709664  0.01471759    -0.91200
C178        C  0.31880602  0.37738906  0.50013990     1.17900
H179        H  0.38357731  0.27542491  0.10857587     0.33800
H180        H  0.42129437  0.28766956  0.48131146     0.44700
H181        H  0.31145084  0.27365376  0.00694903     0.38200
H182        H  0.37635316  0.12051226  0.04825870     0.34700
H183        H  0.47352787  0.30741777  0.04936579     0.26500
H184        H  0.38622710  0.13164582  0.46424267     0.32400
H185        H  0.31872885  0.09571583  0.50185050     0.38300
H186        H  0.39316914  0.37353289  0.07369275     0.32800
H187        H  0.34583974  0.37545951  0.08432884     0.31700
H188        H  0.28537299  0.25440909  0.08731849     0.33300
H189        H  0.27748129  0.21454520  0.01146268     0.32300
H190        H  0.42331870  0.37348287  0.99501713     0.36300
H191        H  0.35844010  0.37486108  0.42112256     0.29000
H192        H  0.38923517  0.10197145  0.14892992     0.33300
H193        H  0.31153300  0.11592746  0.07890381     0.36100
H194        H  0.31965394  0.35391623  0.10261494     0.28700
H195        H  0.37628969  0.39218068  0.44741960     0.41600
H196        H  0.46352850  0.21819118  0.99452565     0.31700
H197        H  0.46889647  0.25337084  0.05162454     0.39300
H198        H  0.28076329  0.19818269  0.04972776     0.31100
H199        H  0.41761066  0.12472422  0.46238499     0.31200
H200        H  0.37304040  0.08374870  0.12161927     0.31500
Zr201      Zr  0.37626191  0.78959390  0.08112971     2.17500
O202        O  0.36498982  0.86410785  0.09731837    -0.50900
O203        O  0.40321598  0.75955238  0.13001171    -0.74100
O204        O  0.34048192  0.77548795  0.12248749    -0.80900
O205        O  0.43455471  0.84865587  0.03121203    -0.82600
O206        O  0.31294288  0.71873971  0.11100954    -0.78300
O207        O  0.40895028  0.85214203  0.07677746    -0.89900
O208        O  0.42450827  0.69199499  0.12346931    -0.75900
O209        O  0.36939759  0.70654908  0.09234439    -0.85300
O210        O  0.41542484  0.75538401  0.06125939    -0.85000
O211        O  0.33599651  0.77934254  0.05152851    -0.71800
O212        O  0.37875773  0.82414266  0.02324617    -0.83900
Zr213      Zr  0.37311156  0.69071452  0.48600939     2.26400
Zr214      Zr  0.33030420  0.69521590  0.06169129     2.06300
Zr215      Zr  0.41793088  0.78834081  0.00375168     2.10000
Zr216      Zr  0.40848524  0.67266038  0.07208304     1.78800
O217        O  0.42407798  0.86031315  0.46619021    -0.92700
O218        O  0.39202153  0.60581837  0.11282121    -0.40500
O219        O  0.41228612  0.70436891  0.01370707    -0.77200
O220        O  0.36927669  0.65933423  0.04217230    -0.95900
O221        O  0.33249734  0.72784507  0.00393395    -0.89200
O222        O  0.37977753  0.77385837  0.47496973    -0.92000
C223        C  0.41968383  0.72488774  0.13972233     1.01700
C224        C  0.42868739  0.86550023  0.05693283     1.14700
C225        C  0.32012600  0.74803990  0.12873411     1.05500
O226        O  0.32828808  0.62153914  0.10226649    -0.94200
O227        O  0.31296402  0.63670400  0.03278798    -0.89900
O228        O  0.33978143  0.62874052  0.48983002    -0.83100
C229        C  0.31921012  0.61877268  0.00760206     1.12100
O230        O  0.32244838  0.88625840  0.00302175    -0.96100
Zr231      Zr  0.33947833  0.81060590  0.99321758     1.88900
O232        O  0.34636601  0.72001976  0.43705827    -0.72800
O233        O  0.28134986  0.70414476  0.06017034    -0.52000
O234        O  0.29063145  0.81891046  0.99630380    -0.96700
O235        O  0.35392243  0.87489055  0.45203157    -0.53900
O236        O  0.32364166  0.78585538  0.44428983    -0.73300
C237        C  0.32903453  0.75339305  0.42784524     0.99000
O238        O  0.38530487  0.61680128  0.46934890    -0.62100
O239        O  0.46573818  0.77040819  0.01361428    -0.56900
O240        O  0.41002049  0.70442962  0.44615637    -0.93600
O241        O  0.43590564  0.76467655  0.45549418    -0.92000
O242        O  0.45736775  0.66325107  0.07170134    -0.92400
O243        O  0.42433085  0.59850484  0.05850886    -0.91200
C244        C  0.42972972  0.73321599  0.43908231     1.17900
H245        H  0.43151807  0.76270792  0.07203448     0.33800
H246        H  0.36670469  0.62563920  0.04513366     0.44700
H247        H  0.38248655  0.78581678  0.45162140     0.38200
H248        H  0.32078526  0.79430441  0.06030742     0.34700
H249        H  0.40849549  0.58860322  0.12203695     0.26500
H250        H  0.27649015  0.70501981  0.03690488     0.32400
H251        H  0.28452328  0.78701550  0.49028416     0.38300
H252        H  0.46156932  0.64183414  0.09297594     0.32800
H253        H  0.47540768  0.79297720  0.49250495     0.31700
H254        H  0.44379724  0.86538376  0.46465090     0.33300
H255        H  0.36489946  0.86166334  0.43581104     0.32300
H256        H  0.41435481  0.59587517  0.03839007     0.36300
H257        H  0.38859233  0.62487997  0.44519978     0.29000
H258        H  0.36172718  0.85632503  0.12147306     0.33300
H259        H  0.33003727  0.88882434  0.02460697     0.36100
H260        H  0.47491669  0.80104636  0.00643326     0.28700
H261        H  0.40252295  0.61233714  0.97699232     0.41600
H262        H  0.30960661  0.61041455  0.10109638     0.31700
H263        H  0.38449326  0.61989656  0.13099856     0.39300
H264        H  0.36700580  0.89215163  0.46293210     0.31100
H265        H  0.27451018  0.67341655  0.07237230     0.31200
H266        H  0.34718216  0.87325003  0.08736296     0.31500
Zr267      Zr  0.13198205  0.69181689  0.48640958     2.17500
O268        O  0.12432695  0.61659912  0.47017515    -0.50900
O269        O  0.16147314  0.72274015  0.44052618    -0.74100
O270        O  0.09937960  0.70348029  0.44085694    -0.80900
O271        O  0.18671230  0.63015958  0.04576695    -0.82600
O272        O  0.07189694  0.76491666  0.44672338    -0.78300
O273        O  0.16637732  0.63008675  0.49656968    -0.89900
O274        O  0.18257605  0.78784469  0.44989250    -0.75900
O275        O  0.12589605  0.77527847  0.47331551    -0.85300
O276        O  0.16876733  0.72221189  0.01226294    -0.85000
O277        O  0.08932241  0.70484263  0.00983546    -0.71800
O278        O  0.12925965  0.65676700  0.04464602    -0.83900
Zr279      Zr  0.11775955  0.78876262  0.08146874     2.26400
Zr280      Zr  0.08508183  0.78916321  0.99788821     2.06300
Zr281      Zr  0.16536331  0.69031010  0.07013106     2.10000
Zr282      Zr  0.16342471  0.80550632  0.00031728     1.78800
O283        O  0.16588875  0.61777667  0.11206188    -0.92700
O284        O  0.14693613  0.87747269  0.45930141    -0.40500
O285        O  0.16092174  0.77432378  0.05851793    -0.77200
O286        O  0.12097014  0.82281893  0.02348459    -0.95900
O287        O  0.08136050  0.75756185  0.05577101    -0.89200
O288        O  0.12295501  0.70503597  0.09400330    -0.92000
C289        C  0.17866409  0.75593412  0.43291209     1.01700
C290        C  0.18407673  0.61390349  0.01943754     1.14700
C291        C  0.07981840  0.73279806  0.43121343     1.05500
O292        O  0.08084652  0.86094224  0.45625565    -0.94200
O293        O  0.06329495  0.84894506  0.02246453    -0.89900
O294        O  0.08299182  0.85014353  0.07179753    -0.83100
C295        C  0.06577857  0.86483912  0.04900403     1.12100
O296        O  0.06718066  0.60679720  0.04990999    -0.96100
Zr297      Zr  0.08678191  0.67410788  0.06794341     1.88900
O298        O  0.08726866  0.75892837  0.12676306    -0.72800
O299        O  0.03644753  0.78136509  0.99380230    -0.52000
O300        O  0.03782472  0.67414067  0.06368561    -0.96700
O301        O  0.09947300  0.60216256  0.10687375    -0.53900
O302        O  0.06664916  0.69360710  0.11721939    -0.73300
C303        C  0.07023430  0.72538118  0.13430759     0.99000
O304        O  0.13131693  0.86005560  0.09969379    -0.62100
O305        O  0.21403267  0.69948521  0.07257960    -0.56900
O306        O  0.14968650  0.77677572  0.12720571    -0.93600
O307        O  0.17760629  0.71621934  0.12045348    -0.92000
O308        O  0.21242809  0.80398977  0.00396921    -0.92400
O309        O  0.18124194  0.87341062  0.01934128    -0.91200
C310        C  0.16949878  0.74792461  0.13631358     1.17900
H311        H  0.18594022  0.71391780  0.00357671     0.33800
H312        H  0.11859799  0.85673988  0.01998748     0.44700
H313        H  0.12299762  0.69272801  0.11753674     0.38200
H314        H  0.07507832  0.69082104  0.99948185     0.34700
H315        H  0.16350739  0.89604093  0.45317403     0.26500
H316        H  0.02794608  0.77908709  0.51756191     0.32400
H317        H  0.03191022  0.70628340  0.06588751     0.38300
H318        H  0.21701471  0.79197115  0.51632927     0.32800
H319        H  0.22095886  0.66789163  0.08341243     0.31700
H320        H  0.15703603  0.59407103  0.10163200     0.33300
H321        H  0.08266889  0.58383671  0.11154163     0.32300
H322        H  0.16595137  0.88532964  0.03112788     0.36300
H323        H  0.12918687  0.88618608  0.08027318     0.29000
H324        H  0.12365392  0.62363183  0.44574651     0.33300
H325        H  0.08281794  0.58939500  0.04284112     0.36100
H326        H  0.22047913  0.70359626  0.04941540     0.28700
H327        H  0.11720424  0.86589278  0.11562723     0.41600
H328        H  0.08795912  0.88589147  0.46697238     0.31700
H329        H  0.14231791  0.86545232  0.43929996     0.39300
H330        H  0.10335521  0.61256264  0.12770775     0.31100
H331        H  0.02971417  0.81351900  0.98398890     0.31200
H332        H  0.10569465  0.60817216  0.47770228     0.31500
C333        C  0.01767616  0.26390643  0.25522785     0.02700
C334        C  0.48908717  0.25613229  0.25055936     0.02700
C335        C  0.47174067  0.25726819  0.27773483    -0.17800
C336        C  0.48156633  0.25724311  0.30953382     0.02700
C337        C  0.01088304  0.25906083  0.31516086     0.02700
C338        C  0.02791596  0.26176440  0.28718302    -0.17800
H339        H  0.04957272  0.26162033  0.29043586     0.04700
H340        H  0.45012042  0.25784235  0.27407675     0.04700
C341        C  0.48268392  0.71772825  0.25962411     0.02700
C342        C  0.01151119  0.71842027  0.25754256     0.02700
C343        C  0.02707574  0.71974796  0.28543746    -0.17800
C344        C  0.01488965  0.72122382  0.31592404     0.02700
C345        C  0.48578428  0.71717503  0.31852182     0.02700
C346        C  0.47029872  0.71638529  0.29043863    -0.17800
H347        H  0.44847391  0.71622192  0.29240669     0.04700
H348        H  0.04888701  0.72052983  0.28321180     0.04700
C349        C  0.26223635  0.75251114  0.25032077     0.02700
C350        C  0.23379632  0.75557451  0.25255630     0.02700
C351        C  0.22192815  0.75776267  0.28306804    -0.17800
C352        C  0.23782430  0.75727397  0.31097154     0.02700
C353        C  0.26626979  0.75504442  0.30859338     0.02700
C354        C  0.27814642  0.75253697  0.27814551    -0.17800
H355        H  0.29993795  0.75066085  0.27602522     0.04700
H356        H  0.20012987  0.75918791  0.28527208     0.04700
C357        C  0.23775749  0.21292435  0.25797746     0.02700
C358        C  0.26619831  0.21210838  0.26207394     0.02700
C359        C  0.27642335  0.21221485  0.29368835    -0.17800
C360        C  0.25938435  0.21272569  0.32124994     0.02700
C361        C  0.23096965  0.21133068  0.31748054     0.02700
C362        C  0.22074113  0.21174007  0.28578584    -0.17800
H363        H  0.19907402  0.21185046  0.28258923     0.04700
H364        H  0.29808474  0.21242899  0.29686977     0.04700
C365        C  0.18422102  0.75071957  0.16734961    -0.04900
C366        C  0.19072710  0.70879951  0.19046825    -0.02000
C367        C  0.20659079  0.71062355  0.21834000     0.03000
C368        C  0.21597693  0.75424484  0.22377355    -0.04900
C369        C  0.20733471  0.79639951  0.20265790    -0.02000
C370        C  0.19233268  0.79471259  0.17401619     0.03000
C371        C  0.18023519  0.66368349  0.18646665     0.35600
C372        C  0.21255109  0.84159657  0.21135185     0.37600
C373        C  0.18634058  0.83840517  0.15093237     0.36000
C374        C  0.21209420  0.66773339  0.24248137     0.36000
N375        N  0.18199309  0.87366707  0.13270953    -0.38800
N376        N  0.21610726  0.63360887  0.26199059    -0.38800
N377        N  0.21598381  0.87779499  0.21848855    -0.38200
N378        N  0.17181829  0.62755541  0.18365465    -0.38200
C379        C  0.22386345  0.75727226  0.34277013    -0.04900
C380        C  0.21521357  0.80020891  0.35087155    -0.02000
C381        C  0.20098948  0.80012144  0.38062741     0.03000
C382        C  0.19505383  0.75676062  0.40234914    -0.04900
C383        C  0.20354248  0.71363253  0.39362534    -0.02000
C384        C  0.21726832  0.71404192  0.36360151     0.03000
C385        C  0.21937134  0.84429345  0.32743539     0.37600
C386        C  0.19816401  0.66831026  0.41512933     0.37600
C387        C  0.22278320  0.66980821  0.35302727     0.36000
C388        C  0.19131926  0.84475201  0.38763426     0.36000
N389        N  0.22646840  0.63431577  0.34465038    -0.38800
N390        N  0.18379263  0.88077583  0.39268827    -0.38800
N391        N  0.19385607  0.63174861  0.43165577    -0.38200
N392        N  0.22228650  0.87933652  0.30850415    -0.38200
C393        C  0.05384490  0.72329297  0.16510726    -0.04900
C394        C  0.04566922  0.67926956  0.18454287    -0.02000
C395        C  0.03164028  0.67777306  0.21461206     0.03000
C396        C  0.02575984  0.71988004  0.22565405    -0.04900
C397        C  0.03473916  0.76340084  0.20719831    -0.02000
C398        C  0.04737251  0.76551802  0.17631548     0.03000
C399        C  0.05212251  0.63494197  0.17459849     0.37600
C400        C  0.53043165  0.80672791  0.21924030     0.37600
C401        C  0.05278372  0.81167623  0.15593197     0.36000
C402        C  0.02511322  0.63246367  0.23538319     0.36000
N403        N  0.05684429  0.84869393  0.13990203    -0.38800
N404        N  0.02054935  0.59591561  0.25178315    -0.38800
N405        N  0.52859492  0.84160048  0.22887019    -0.38200
N406        N  0.05681371  0.59906624  0.16720705    -0.38200
C407        C  0.06481071  0.72952709  0.40037809    -0.04900
C408        C  0.05716952  0.77114446  0.37750761    -0.02000
C409        C  0.04081207  0.76843817  0.35014720     0.03000
C410        C  0.03252042  0.72417905  0.34459473    -0.04900
C411        C  0.04213870  0.68265036  0.36551137    -0.02000
C412        C  0.05692085  0.68521162  0.39411144     0.03000
C413        C  0.06651534  0.81702708  0.38149765     0.37600
C414        C  0.53457810  0.63521897  0.35981508     0.37600
C415        C  0.06214463  0.64206733  0.41803225     0.36000
C416        C  0.03337717  0.81129732  0.32696290     0.36000
N417        N  0.06548359  0.60714253  0.43698488    -0.38800
N418        N  0.02779314  0.84574514  0.30851816    -0.38800
N419        N  0.53119956  0.59835788  0.35371548    -0.38200
N420        N  0.07386054  0.85386752  0.38428029    -0.38200
C421        C  0.31406945  0.75396503  0.39623579    -0.04900
C422        C  0.30731101  0.71100466  0.38654651    -0.02000
C423        C  0.29303095  0.71167819  0.35707827     0.03000
C424        C  0.28393118  0.75477165  0.33773974    -0.04900
C425        C  0.29228529  0.79753791  0.34570425    -0.02000
C426        C  0.30687277  0.79732280  0.37495297     0.03000
C427        C  0.31431142  0.66550078  0.40692052     0.37600
C428        C  0.28772716  0.84162820  0.32239581     0.37600
C429        C  0.31516472  0.84203961  0.38224647     0.36000
C430        C  0.28916652  0.66802252  0.34554627     0.36000
N431        N  0.32160656  0.87795466  0.38783431    -0.38800
N432        N  0.28677946  0.63320192  0.33612038    -0.38800
N433        N  0.28479946  0.87675664  0.30349938    -0.38200
N434        N  0.31974985  0.62872799  0.42259645    -0.38200
C435        C  0.30428935  0.74921062  0.15921414    -0.04900
C436        C  0.29669715  0.79287369  0.16745401    -0.02000
C437        C  0.28339269  0.79366038  0.19757857     0.03000
C438        C  0.27618236  0.75104912  0.21876047    -0.04900
C439        C  0.28441997  0.70746601  0.21130277    -0.02000
C440        C  0.29841764  0.70645596  0.18159358     0.03000
C441        C  0.30232509  0.83734391  0.14519428     0.37600
C442        C  0.28052099  0.66394603  0.23540794     0.37600
C443        C  0.30847586  0.66148309  0.17551322     0.36000
C444        C  0.27917300  0.83824651  0.20811255     0.36000
N445        N  0.31657393  0.62531079  0.17137425    -0.38800
N446        N  0.27651052  0.87370873  0.21682886    -0.38800
N447        N  0.27805703  0.62910969  0.25467963    -0.38200
N448        N  0.30634612  0.87356484  0.12808249    -0.38200
C449        C  0.47168851  0.72117994  0.34958044    -0.04900
C450        C  0.46579071  0.68045821  0.37354929    -0.02000
C451        C  0.45436799  0.68499259  0.40405314     0.03000
C452        C  0.44610095  0.72988779  0.40942813    -0.04900
C453        C  0.45158603  0.77073499  0.38505498    -0.02000
C454        C  0.46432074  0.76625198  0.35518731     0.03000
C455        C  0.46966402  0.63377631  0.36622523     0.37600
C456        C  0.44379538  0.81740946  0.39010835     0.37600
C457        C  0.46852110  0.80782977  0.32939836     0.36000
C458        C  0.45261279  0.64365635  0.43055204     0.36000
N459        N  0.47152082  0.84093185  0.30869923    -0.38800
N460        N  0.45192953  0.61071377  0.45176635    -0.38800
N461        N  0.43795006  0.85501841  0.39368961    -0.38200
N462        N  0.47188012  0.59612579  0.36076802    -0.38200
C463        C  0.43453802  0.72326433  0.17154883    -0.04900
C464        C  0.44318510  0.76552026  0.18077125    -0.02000
C465        C  0.45813317  0.76355965  0.20995427     0.03000
C466        C  0.46544577  0.71968390  0.22987084    -0.04900
C467        C  0.45524014  0.67789612  0.22228771    -0.02000
C468        C  0.44012483  0.67948651  0.19326225     0.03000
C469        C  0.43699250  0.81150166  0.16048496     0.37600
C470        C  0.45895463  0.63340114  0.24546782     0.37600
C471        C  0.42927115  0.63584450  0.18701626     0.36000
C472        C  0.46447814  0.80695594  0.22063608     0.36000
N473        N  0.42076045  0.60044422  0.18286006    -0.38800
N474        N  0.46885507  0.84178620  0.22926321    -0.38800
N475        N  0.96030433  0.59780835  0.26613437    -0.38200
N476        N  0.43202602  0.84854970  0.14487885    -0.38200
C477        C  0.28579678  0.21162356  0.23380809    -0.04900
C478        C  0.28763327  0.17229432  0.21816094    -0.02000
C479        C  0.30440625  0.17359789  0.18992191     0.03000
C480        C  0.32079188  0.21314277  0.17803915    -0.04900
C481        C  0.32094773  0.25043680  0.19561040    -0.02000
C482        C  0.30351083  0.24987999  0.22311389     0.03000
C483        C  0.27354989  0.12919602  0.23216781     0.37600
C484        C  0.33945468  0.28930752  0.18558976     0.37600
C485        C  0.30375374  0.28909687  0.24020863     0.36000
C486        C  0.30393405  0.13490463  0.17238202     0.36000
N487        N  0.30398632  0.32040244  0.25383006    -0.38800
N488        N  0.30334115  0.10399603  0.15841663    -0.38800
N489        N  0.35437444  0.32009894  0.17778140    -0.38200
N490        N  0.26304401  0.09400103  0.24338506    -0.38200
C491        C  0.30097129  0.22503093  0.41110819    -0.04900
C492        C  0.28544394  0.26329645  0.39373312    -0.02000
C493        C  0.27180506  0.25926140  0.36459919     0.03000
C494        C  0.27235206  0.21615290  0.35327737    -0.04900
C495        C  0.28803151  0.17796861  0.37049900    -0.02000
C496        C  0.30217684  0.18226361  0.39922226     0.03000
C497        C  0.28321422  0.30688917  0.40603619     0.37600
C498        C  0.29067434  0.13481129  0.35772964     0.37600
C499        C  0.31903921  0.14317381  0.41550738     0.36000
C500        C  0.25924047  0.30094207  0.34486860     0.36000
N501        N  0.33248654  0.11186348  0.42827265    -0.38800
N502        N  0.24996950  0.33505855  0.32920580    -0.38800
N503        N  0.29297304  0.10061207  0.34731879    -0.38200
N504        N  0.28148123  0.34151448  0.41601623    -0.38200
C505        C  0.44952907  0.24539445  0.15913431    -0.04900
C506        C  0.46495246  0.20696751  0.17650198    -0.02000
C507        C  0.47792867  0.21046009  0.20622045     0.03000
C508        C  0.47651557  0.25299890  0.21827099    -0.04900
C509        C  0.46052540  0.29089858  0.20131710    -0.02000
C510        C  0.44753034  0.28746368  0.17174320     0.03000
C511        C  0.46770341  0.16385236  0.16370846     0.37600
C512        C  0.45598792  0.33265773  0.21530132     0.37600
C513        C  0.43092260  0.32684598  0.15538079     0.36000
C514        C  0.49044529  0.16870976  0.22596650     0.36000
N515        N  0.41778553  0.35874175  0.14289415    -0.38800
N516        N  0.49971619  0.13474491  0.24183460    -0.38800
N517        N  0.45188876  0.36576505  0.22650408    -0.38200
N518        N  0.47001699  0.12945996  0.15353052    -0.38200
C519        C  0.42594611  0.25985594  0.39200446    -0.04900
C520        C  0.44179374  0.29976613  0.37908724    -0.02000
C521        C  0.45966924  0.29929061  0.35202318     0.03000
C522        C  0.46157757  0.25919411  0.33714937    -0.04900
C523        C  0.44336134  0.22169354  0.34773166    -0.02000
C524        C  0.42620267  0.22153950  0.37539659     0.03000
C525        C  0.43996714  0.34121259  0.39384333     0.37600
C526        C  0.44211753  0.18307980  0.33014267     0.37600
C527        C  0.40826979  0.18212417  0.38644656     0.36000
C528        C  0.47517625  0.34106295  0.33865804     0.36000
N529        N  0.39386380  0.15080015  0.39514113    -0.38800
N530        N  0.98664041  0.37869295  0.32863032    -0.38800
N531        N  0.44094996  0.15248920  0.31593803    -0.38200
N532        N  0.43831864  0.37457099  0.40530872    -0.38200
C533        C  0.17462103  0.21294258  0.39954636    -0.04900
C534        C  0.17596544  0.25163399  0.37243887    -0.02000
C535        C  0.19407289  0.25082972  0.34579778     0.03000
C536        C  0.21122591  0.21122455  0.34566973    -0.04900
C537        C  0.20786572  0.17064508  0.37111619    -0.02000
C538        C  0.18991442  0.17167867  0.39807842     0.03000
C539        C  0.15800984  0.29203742  0.37152380     0.37600
C540        C  0.22161729  0.12684475  0.36872705     0.37600
C541        C  0.18750974  0.13047935  0.42454505     0.36000
C542        C  0.19476659  0.29088998  0.31826839     0.36000
N543        N  0.18542248  0.09753246  0.44559537    -0.38800
N544        N  0.19516235  0.32277649  0.29623752    -0.38800
N545        N  0.23191462  0.09120179  0.36695073    -0.38200
N546        N  0.14350359  0.32402083  0.37069070    -0.38200
C547        C  0.22488303  0.21589622  0.22488963    -0.04900
C548        C  0.22663066  0.25758591  0.20020717    -0.02000
C549        C  0.21397382  0.26056488  0.16937235     0.03000
C550        C  0.19814708  0.22294328  0.16333716    -0.04900
C551        C  0.19615577  0.18134280  0.18815335    -0.02000
C552        C  0.20919108  0.17808918  0.21878638     0.03000
C553        C  0.23958474  0.29904072  0.20724037     0.37600
C554        C  0.18004106  0.14209636  0.18280058     0.37600
C555        C  0.20572222  0.13617099  0.24451154     0.36000
C556        C  0.21791829  0.30200333  0.14338262     0.36000
N557        N  0.20289736  0.10291145  0.26514456    -0.38800
N558        N  0.22119214  0.33473238  0.12244207    -0.38800
N559        N  0.16735710  0.11036451  0.17894490    -0.38200
N560        N  0.24927865  0.33295350  0.21246145    -0.38200
C561        C  0.02349109  0.25454558  0.34848872    -0.04900
C562        C  0.03915691  0.29173528  0.35551289    -0.02000
C563        C  0.05110932  0.28785788  0.38674543     0.03000
C564        C  0.04786930  0.24645933  0.41139251    -0.04900
C565        C  0.03248421  0.20897790  0.40435294    -0.02000
C566        C  0.02106320  0.21242405  0.37273523     0.03000
C567        C  0.54476970  0.32880981  0.32679810     0.37600
C568        C  0.02792646  0.16725015  0.42990876     0.37600
C569        C  0.00904393  0.17102563  0.36432139     0.36000
C570        C  0.06782791  0.32596347  0.39285277     0.36000
N571        N  0.00019956  0.13724844  0.35777557    -0.38800
N572        N  0.08117240  0.35644880  0.39750656    -0.38800
N573        N  0.02411168  0.13427374  0.45048178    -0.38200
N574        N  0.54924146  0.36066230  0.30558381    -0.38200
C575        C  0.03735214  0.26558630  0.22663999    -0.04900
C576        C  0.03873347  0.30546348  0.20023581    -0.02000
C577        C  0.05626809  0.30525075  0.17270898     0.03000
C578        C  0.07325393  0.26574903  0.17165597    -0.04900
C579        C  0.07343866  0.22775083  0.19924214    -0.02000
C580        C  0.05581898  0.22770574  0.22647251     0.03000
C581        C  0.02314163  0.34773995  0.20197750     0.37600
C582        C  0.09197582  0.18829192  0.19960439     0.37600
C583        C  0.05661039  0.18801423  0.25425888     0.36000
C584        C  0.05608522  0.34499782  0.14494984     0.36000
N585        N  0.05726194  0.15638575  0.27646024    -0.38800
N586        N  0.05589759  0.37672781  0.12279463    -0.38800
N587        N  0.10681356  0.15691073  0.19986649    -0.38200
N588        N  0.01124997  0.38215228  0.20319513    -0.38200
N589        N  0.25251830  0.56620427  0.00690198    -0.36200
N590        N  0.29417277  0.50109087  0.99404255    -0.56700
N591        N  0.25053549  0.42821413  0.50504715    -0.36200
N592        N  0.21025663  0.49418084  0.51927150    -0.56700
C593        C  0.27332274  0.59553907  0.99715676     0.27400
C594        C  0.22980744  0.59304029  0.00374729     0.27400
C595        C  0.27163873  0.40261034  0.49651686     0.27400
C596        C  0.22943304  0.39840133  0.51357897     0.27400
C597        C  0.31014657  0.53649561  0.99915336     0.36000
C598        C  0.31017864  0.46235642  0.99633523     0.36000
C599        C  0.19487408  0.53137225  0.52328594     0.36000
C600        C  0.19503730  0.45535957  0.52831489     0.36000
C601        C  0.26389802  0.64158684  0.98760738    -0.21500
C602        C  0.23641602  0.64002829  0.99166417    -0.21500
C603        C  0.26347575  0.35629986  0.49860925    -0.21500
C604        C  0.23743314  0.35343268  0.51010395    -0.21500
C605        C  0.33662398  0.52074059  0.00339523    -0.22500
C606        C  0.33669302  0.47376104  0.00132815    -0.22500
C607        C  0.16951128  0.51631606  0.53504019    -0.22500
C608        C  0.16958172  0.46803939  0.53808561    -0.22500
C609        C  0.30075265  0.58255057  0.00031012    -0.17900
C610        C  0.20374484  0.57740091  0.01476453    -0.17900
C611        C  0.20324299  0.40948447  0.52519359    -0.17900
C612        C  0.29914287  0.41676904  0.49261462    -0.17900
H613        H  0.27570054  0.67309614  0.97928893     0.15000
H614        H  0.22294599  0.67036277  0.98709936     0.15000
H615        H  0.27550642  0.32669004  0.49419330     0.15000
H616        H  0.22620031  0.32107910  0.51662997     0.15000
H617        H  0.35395614  0.54060135  0.00813977     0.13300
H618        H  0.35409655  0.45025810  0.00442519     0.13300
H619        H  0.15255221  0.53790299  0.54011785     0.13300
H620        H  0.15259142  0.44531424  0.54572214     0.13300
H621        H  0.25436468  0.53173466  0.01995238     0.26600
H622        H  0.25129062  0.46327640  0.50665155     0.26600
N623        N  0.49719883  0.05111945  0.56610181    -0.36200
N624        N  0.45484146  0.97856534  0.57606705    -0.56700
N625        N  0.49625213  0.91371522  0.56095887    -0.36200
N626        N  0.03774537  0.98575387  0.54974966    -0.56700
C627        C  0.47546781  0.07785053  0.57130545     0.27400
C628        C  0.01895652  0.08122057  0.55740670     0.27400
C629        C  0.47526077  0.88481994  0.57073533     0.27400
C630        C  0.01899096  0.88673542  0.56498003     0.27400
C631        C  0.43888799  0.01691015  0.57585682     0.36000
C632        C  0.43869148  0.94383384  0.57023223     0.36000
C633        C  0.05289563  0.02465479  0.54095071     0.36000
C634        C  0.05296697  0.94883969  0.54476645     0.36000
C635        C  0.48304887  0.12498536  0.56618129    -0.21500
C636        C  0.01122943  0.12604401  0.56167915    -0.21500
C637        C  0.48432590  0.83854106  0.58039267    -0.21500
C638        C  0.01227024  0.84021192  0.57835966    -0.21500
C639        C  0.41222853  0.00572652  0.57127612    -0.22500
C640        C  0.41217034  0.95954255  0.56736189    -0.22500
C641        C  0.07816144  0.01225884  0.53032705    -0.22500
C642        C  0.07814920  0.96413020  0.53255302    -0.22500
C643        C  0.44811767  0.06314084  0.57587669    -0.17900
C644        C  0.04489778  0.07016728  0.54522329    -0.17900
C645        C  0.04497629  0.90138992  0.55339772    -0.17900
C646        C  0.44792902  0.89831043  0.56750034    -0.17900
H647        H  0.47047046  0.15545085  0.56770120     0.15000
H648        H  0.02259985  0.15833972  0.55565687     0.15000
H649        H  0.47228827  0.80742347  0.58900781     0.15000
H650        H  0.02567911  0.80973502  0.58348055     0.15000
H651        H  0.39478590  0.02908703  0.56930303     0.13300
H652        H  0.39470385  0.94023682  0.56233222     0.13300
H653        H  0.09515922  0.03495673  0.52280478     0.13300
H654        H  0.09498904  0.94275874  0.52684057     0.13300
H655        H  0.49763534  0.01471424  0.56928642     0.26600
H656        H  0.49464081  0.94860735  0.54831075     0.26600
Zr657      Zr  0.11266180  0.18346116  0.99200454     2.17500
O658        O  0.12403050  0.11146356  0.97230385    -0.50900
O659        O  0.07981771  0.21058033  0.94846589    -0.74100
O660        O  0.07851411  0.12080105  0.51424439    -0.80900
O661        O  0.16803661  0.25750003  0.94174474    -0.82600
O662        O  0.06876088  0.12469883  0.56759235    -0.78300
O663        O  0.14391294  0.19048085  0.94397366    -0.89900
O664        O  0.06241596  0.28128527  0.95533933    -0.75900
O665        O  0.07939133  0.21119234  0.52644249    -0.85300
O666        O  0.11515315  0.26729847  0.97528945    -0.85000
O667        O  0.12587873  0.15429074  0.55077554    -0.71800
O668        O  0.15693576  0.20523749  0.50637668    -0.83900
Zr669      Zr  0.13583827  0.29639842  0.57783817     2.26400
Zr670      Zr  0.09311821  0.18761299  0.58270358     2.06300
Zr671      Zr  0.15850055  0.28840467  0.99076717     2.10000
Zr672      Zr  0.07919769  0.29453944  0.50855635     1.78800
O673        O  0.20306202  0.28964930  0.47066082    -0.92700
O674        O  0.03200196  0.27608213  0.52206596    -0.40500
O675        O  0.12280796  0.32203327  0.52081724    -0.77200
O676        O  0.09158345  0.27172552  0.56528232    -0.95900
O677        O  0.13635725  0.21237910  0.59549383    -0.89200
O678        O  0.16949605  0.26487400  0.54595308    -0.92000
C679        C  0.06474585  0.24745989  0.93945005     1.01700
C680        C  0.16148421  0.22122231  0.93030014     1.14700
C681        C  0.06565213  0.10738441  0.54182172     1.05500
O682        O  0.04807943  0.17907227  0.60719215    -0.94200
O683        O  0.08344354  0.22024850  0.63107979    -0.89900
O684        O  0.10573829  0.28947325  0.62714568    -0.83100
C685        C  0.08899681  0.25772169  0.64168721     1.12100
O686        O  0.18994727  0.11725754  0.54068863    -0.96100
Zr687      Zr  0.16937662  0.18129632  0.56319188     1.88900
O688        O  0.16844372  0.26919325  0.62146976    -0.72800
O689        O  0.10840813  0.11880190  0.62280428    -0.52000
O690        O  0.16742299  0.10668968  0.60290830    -0.96700
O691        O  0.21763358  0.18922060  0.55130085    -0.53900
O692        O  0.18752608  0.20014287  0.61353027    -0.73300
C693        C  0.18428149  0.23320802  0.62999247     0.99000
O694        O  0.12349871  0.37039553  0.59434383    -0.62100
O695        O  0.15035913  0.35826962  0.94777646    -0.56900
O696        O  0.16988706  0.35780860  0.55662697    -0.93600
O697        O  0.17929981  0.35471018  0.50301220    -0.92000
O698        O  0.08484031  0.37285241  0.96540091    -0.92400
O699        O  0.05543609  0.35659946  0.53010396    -0.91200
C700        C  0.18248570  0.37193313  0.52881977     1.17900
H701        H  0.11334020  0.27777364  0.95172601     0.33800
H702        H  0.07787750  0.28506470  0.57760443     0.44700
H703        H  0.18712444  0.27642894  0.54957886     0.38200
H704        H  0.12544332  0.12017665  0.55648489     0.34700
H705        H  0.02987657  0.25311503  0.01245646     0.26500
H706        H  0.12070742  0.13158179  0.63740632     0.32400
H707        H  0.18641633  0.09936290  0.60934871     0.38300
H708        H  0.06706625  0.37724545  0.95449386     0.32800
H709        H  0.13781092  0.34804997  0.93226932     0.31700
H710        H  0.21225311  0.25288613  0.98858913     0.33300
H711        H  0.22645283  0.17162529  0.57153173     0.32300
H712        H  0.06969442  0.37870115  0.53356135     0.36300
H713        H  0.14043240  0.38315265  0.60123626     0.29000
H714        H  0.10690681  0.10051333  0.96453998     0.33300
H715        H  0.17936379  0.11612893  0.52072265     0.36100
H716        H  0.13943864  0.37977245  0.95871548     0.28700
H717        H  0.11841030  0.39214966  0.57356097     0.41600
H718        H  0.03809815  0.20777536  0.59617897     0.31700
H719        H  0.02913151  0.24491975  0.51621656     0.39300
H720        H  0.22193924  0.22270186  0.55078274     0.31100
H721        H  0.09230719  0.10888448  0.63677065     0.31200
H722        H  0.13056791  0.08554811  0.49772083     0.31500
Zr723      Zr  0.38482198  0.18438036  0.59461192     2.17500
O724        O  0.37362693  0.11275019  0.63458695    -0.50900
O725        O  0.41831417  0.21005844  0.63042702    -0.74100
O726        O  0.41672590  0.11883037  0.59188891    -0.80900
O727        O  0.32781882  0.25927282  0.62189283    -0.82600
O728        O  0.42640407  0.11968684  0.53765250    -0.78300
O729        O  0.35291546  0.19254235  0.63956962    -0.89900
O730        O  0.43583185  0.27980411  0.60344400    -0.75900
O731        O  0.41916690  0.21445962  0.55527398    -0.85300
O732        O  0.38237907  0.26856002  0.58670266    -0.85000
O733        O  0.37450309  0.15725630  0.54465675    -0.71800
O734        O  0.34057329  0.20627200  0.57317315    -0.83900
Zr735      Zr  0.36347628  0.29487869  0.97625554     2.26400
Zr736      Zr  0.40834625  0.19022003  0.50491548     2.06300
Zr737      Zr  0.33906657  0.29028600  0.56462213     2.10000
Zr738      Zr  0.41701940  0.29810292  0.54800732     1.78800
O739        O  0.29014697  0.28922880  0.57093979    -0.92700
O740        O  0.46449083  0.28080547  0.53869148    -0.40500
O741        O  0.37334368  0.32278295  0.52569788    -0.77200
O742        O  0.40754627  0.27430398  0.49706921    -0.95900
O743        O  0.36552322  0.21109291  0.98266171    -0.89200
O744        O  0.32894536  0.26502814  0.51459282    -0.92000
C745        C  0.43363223  0.24614772  0.62892914     1.01700
C746        C  0.33472321  0.22325958  0.64392476     1.14700
C747        C  0.42833337  0.10222824  0.56844110     1.05500
O748        O  0.45711162  0.19350093  0.49714885    -0.94200
O749        O  0.41998802  0.21991514  0.94771787    -0.89900
O750        O  0.39430361  0.28589023  0.92996789    -0.83100
C751        C  0.41265841  0.25535953  0.92551354     1.12100
O752        O  0.30762677  0.11962595  0.56116274    -0.96100
Zr753      Zr  0.33103239  0.18141636  0.52262438     1.88900
O754        O  0.33037570  0.26881524  0.94022172    -0.72800
O755        O  0.39944259  0.12514596  0.97672085    -0.52000
O756        O  0.33999434  0.10485872  0.00319937    -0.96700
O757        O  0.28253699  0.19361389  0.52833768    -0.53900
O758        O  0.31450774  0.19706275  0.96586534    -0.73300
C759        C  0.31612778  0.23159909  0.94096923     0.99000
O760        O  0.37558562  0.36769805  0.93798367    -0.62100
O761        O  0.34485284  0.35508606  0.59355466    -0.56900
O762        O  0.33189225  0.36061412  0.97915453    -0.93600
O763        O  0.32053468  0.35978776  0.53091155    -0.92000
O764        O  0.41908354  0.37131091  0.56849265    -0.92400
O765        O  0.43302150  0.36700438  0.50854769    -0.91200
C766        C  0.32049013  0.37673307  0.00291021     1.17900
H767        H  0.38402703  0.27951126  0.60716958     0.33800
H768        H  0.42151927  0.28731588  0.98252072     0.44700
H769        H  0.31142579  0.27634447  0.50658251     0.38200
H770        H  0.37531696  0.12312715  0.54885151     0.34700
H771        H  0.47445257  0.30032060  0.55155771     0.26500
H772        H  0.41724380  0.11678938  0.96821068     0.32400
H773        H  0.32256322  0.09749256  0.99410987     0.38300
H774        H  0.40068403  0.38508461  0.56542728     0.32800
H775        H  0.35209242  0.38144190  0.57672793     0.31700
H776        H  0.28593356  0.31269352  0.58480905     0.33300
H777        H  0.27713948  0.21724353  0.50857797     0.32300
H778        H  0.45248394  0.36927630  0.51288687     0.36300
H779        H  0.35937181  0.37741068  0.92444369     0.29000
H780        H  0.38987309  0.10486308  0.64837886     0.33300
H781        H  0.31581989  0.11971801  0.58286141     0.36100
H782        H  0.32627815  0.36539050  0.59803341     0.28700
H783        H  0.37738157  0.39183394  0.95176259     0.41600
H784        H  0.46153133  0.16828001  0.48480502     0.31700
H785        H  0.46760749  0.24793488  0.55073977     0.39300
H786        H  0.28057923  0.21047027  0.54686426     0.31100
H787        H  0.39494385  0.09779365  0.99448189     0.31200
H788        H  0.37251322  0.08741589  0.62170061     0.31500
Zr789      Zr  0.37680304  0.78670826  0.58291267     2.17500
O790        O  0.36616374  0.86054331  0.60048853    -0.50900
O791        O  0.40325585  0.75617643  0.63219876    -0.74100
O792        O  0.33968927  0.77394560  0.62264339    -0.80900
O793        O  0.43578694  0.84512373  0.53416247    -0.82600
O794        O  0.31356962  0.71458185  0.61249400    -0.78300
O795        O  0.40919252  0.84984487  0.57870739    -0.89900
O796        O  0.42571273  0.69013761  0.62501378    -0.75900
O797        O  0.37012056  0.70362656  0.59425222    -0.85300
O798        O  0.41622486  0.75296298  0.56316509    -0.85000
O799        O  0.33680890  0.77604301  0.55287859    -0.71800
O800        O  0.37947717  0.82125451  0.52494516    -0.83900
Zr801      Zr  0.37197054  0.69396941  0.98432561     2.26400
Zr802      Zr  0.33130525  0.69185138  0.56311087     2.06300
Zr803      Zr  0.41875683  0.78598008  0.50557638     2.10000
Zr804      Zr  0.40937194  0.67016993  0.57411899     1.78800
O805        O  0.42623783  0.86110097  0.96383092    -0.92700
O806        O  0.39107833  0.60522225  0.61509863    -0.40500
O807        O  0.41309455  0.70190156  0.51577581    -0.77200
O808        O  0.37052475  0.65601821  0.54378164    -0.95900
O809        O  0.33362284  0.72462286  0.50538026    -0.89200
O810        O  0.37869189  0.77705487  0.97333201    -0.92000
C811        C  0.42034376  0.72239350  0.64160380     1.01700
C812        C  0.42935484  0.86273964  0.55944395     1.14700
C813        C  0.31967016  0.74573496  0.62922635     1.05500
O814        O  0.32786363  0.61675696  0.60222579    -0.94200
O815        O  0.31249932  0.63575918  0.53328973    -0.89900
O816        O  0.33927428  0.63142687  0.98812090    -0.83100
C817        C  0.31897641  0.61739915  0.50838798     1.12100
O818        O  0.32509084  0.88325230  0.50589131    -0.96100
Zr819      Zr  0.34041834  0.80748987  0.49459881     1.88900
O820        O  0.34515568  0.72345083  0.93555955    -0.72800
O821        O  0.28266302  0.70512294  0.56141757    -0.52000
O822        O  0.29152010  0.81413206  0.49881492    -0.96700
O823        O  0.35643621  0.87414845  0.94996064    -0.53900
O824        O  0.32194185  0.78817904  0.94367616    -0.73300
C825        C  0.32754678  0.75642755  0.92672723     0.99000
O826        O  0.38410355  0.61960638  0.96843950    -0.62100
O827        O  0.46699572  0.76867838  0.50989102    -0.56900
O828        O  0.40802321  0.70776419  0.94326799    -0.93600
O829        O  0.43460483  0.76655894  0.95352336    -0.92000
O830        O  0.45825609  0.66081616  0.57469793    -0.92400
O831        O  0.42665846  0.59573161  0.56250708    -0.91200
C832        C  0.42799977  0.73603068  0.93652446     1.17900
H833        H  0.43224512  0.76041020  0.57401996     0.33800
H834        H  0.36820759  0.62229227  0.54650458     0.44700
H835        H  0.38123328  0.78948187  0.94999704     0.38200
H836        H  0.32144474  0.79087260  0.56144630     0.34700
H837        H  0.40677811  0.58468440  0.62298318     0.26500
H838        H  0.27768412  0.70641020  0.53813730     0.32400
H839        H  0.28479620  0.79090614  0.01274102     0.38300
H840        H  0.46433837  0.67855376  0.55284581     0.32800
H841        H  0.47149843  0.75141071  0.99725314     0.31700
H842        H  0.44608186  0.86184199  0.96079703     0.33300
H843        H  0.36911068  0.89154358  0.96132128     0.32300
H844        H  0.42416410  0.59865417  0.53845561     0.36300
H845        H  0.38613366  0.62696520  0.94408649     0.29000
H846        H  0.36198466  0.85203349  0.62442292     0.33300
H847        H  0.33623331  0.88798882  0.52463107     0.36100
H848        H  0.47247436  0.77710278  0.53088221     0.28700
H849        H  0.40319037  0.60809565  0.47919990     0.41600
H850        H  0.33769756  0.59342299  0.59178122     0.31700
H851        H  0.38573511  0.61954410  0.63410265     0.39300
H852        H  0.34104554  0.89628302  0.94397544     0.31100
H853        H  0.27500905  0.67507892  0.57367424     0.31200
H854        H  0.34886930  0.87132191  0.58970722     0.31500
Zr855      Zr  0.13240233  0.69052643  0.98660700     2.17500
O856        O  0.12532445  0.61605818  0.96895172    -0.50900
O857        O  0.16146424  0.72274320  0.94047057    -0.74100
O858        O  0.09857035  0.70123683  0.94242249    -0.80900
O859        O  0.18627999  0.63179520  0.54573792    -0.82600
O860        O  0.07191906  0.76400067  0.94775314    -0.78300
O861        O  0.16667552  0.62818773  0.99674299    -0.89900
O862        O  0.18188505  0.78893489  0.94924665    -0.75900
O863        O  0.12749402  0.77428777  0.97387240    -0.85300
O864        O  0.16825833  0.72470189  0.51152198    -0.85000
O865        O  0.08881779  0.70410654  0.51012874    -0.71800
O866        O  0.12947354  0.65844850  0.54452017    -0.83900
Zr867      Zr  0.11690913  0.79016872  0.58055427     2.26400
Zr868      Zr  0.08341423  0.78826184  0.49798851     2.06300
Zr869      Zr  0.16543819  0.69302691  0.56945027     2.10000
Zr870      Zr  0.16171875  0.80786750  0.49892823     1.78800
O871        O  0.16816314  0.62195015  0.61260593    -0.92700
O872        O  0.15249529  0.87846263  0.96171642    -0.40500
O873        O  0.16001684  0.77669317  0.55717418    -0.77200
O874        O  0.11922512  0.82377996  0.52247701    -0.95900
O875        O  0.08040848  0.75730514  0.55609386    -0.89200
O876        O  0.12306180  0.70676608  0.59358366    -0.92000
C877        C  0.17789376  0.75707280  0.93230958     1.01700
C878        C  0.18362011  0.61560901  0.51937217     1.14700
C879        C  0.07908770  0.73073808  0.93285214     1.05500
O880        O  0.08762969  0.86196316  0.95642400    -0.94200
O881        O  0.06149340  0.84797684  0.52243285    -0.89900
O882        O  0.08166357  0.85038661  0.57128175    -0.83100
C883        C  0.06422615  0.86443831  0.54868789     1.12100
O884        O  0.06949324  0.60212054  0.55476285    -0.96100
Zr885      Zr  0.08701498  0.67399542  0.56856943     1.88900
O886        O  0.08793158  0.75864482  0.62710415    -0.72800
O887        O  0.03522840  0.77396651  0.49612630    -0.52000
O888        O  0.03831981  0.67372098  0.56162635    -0.96700
O889        O  0.10053909  0.60225605  0.60708592    -0.53900
O890        O  0.06830069  0.69119009  0.61955937    -0.73300
C891        C  0.07195853  0.72373995  0.63606333     0.99000
O892        O  0.13011817  0.86257576  0.59766028    -0.62100
O893        O  0.21374624  0.70717330  0.56974742    -0.56900
O894        O  0.14946184  0.78061796  0.62525670    -0.93600
O895        O  0.17701551  0.71881174  0.62002204    -0.92000
O896        O  0.21025243  0.81914560  0.49973876    -0.92400
O897        O  0.17749433  0.87566684  0.51981704    -0.91200
C898        C  0.16903656  0.75160336  0.63496042     1.17900
H899        H  0.18547316  0.71667188  0.50283497     0.33800
H900        H  0.11652042  0.85763036  0.51892784     0.44700
H901        H  0.12349041  0.69484600  0.61714972     0.38200
H902        H  0.07482996  0.68948583  0.49975050     0.34700
H903        H  0.17005229  0.88977292  0.95171475     0.26500
H904        H  0.02972081  0.77545194  0.01690910     0.32400
H905        H  0.03219040  0.70602056  0.56312131     0.38300
H906        H  0.21615096  0.79404252  0.02785177     0.32800
H907        H  0.22111176  0.67982889  0.58571929     0.31700
H908        H  0.15973061  0.59695244  0.60305154     0.33300
H909        H  0.08351244  0.58904442  0.61755979     0.32300
H910        H  0.17009003  0.87125566  0.54258686     0.36300
H911        H  0.12706418  0.88845982  0.57829696     0.29000
H912        H  0.12335533  0.62396231  0.94465282     0.33300
H913        H  0.08170082  0.59549755  0.53704515     0.36100
H914        H  0.22057126  0.70257265  0.54798420     0.28700
H915        H  0.11644664  0.86785883  0.61426679     0.41600
H916        H  0.06875803  0.86892908  0.94934191     0.31700
H917        H  0.14267933  0.86810828  0.94378624     0.39300
H918        H  0.11018559  0.61323334  0.62488904     0.31100
H919        H  0.02814298  0.80104720  0.47968522     0.31200
H920        H  0.10726334  0.60577615  0.97777106     0.31500
C921        C  0.01688769  0.26596043  0.75370347     0.02700
C922        C  0.48984938  0.26094547  0.75037008     0.02700
C923        C  0.47250892  0.26113897  0.77773304    -0.17800
C924        C  0.48235899  0.25994258  0.80971822     0.02700
C925        C  0.01039140  0.26535654  0.81296482     0.02700
C926        C  0.02727688  0.26638919  0.78513655    -0.17800
H927        H  0.04896273  0.26641024  0.78815989     0.04700
H928        H  0.45088505  0.26180344  0.77410788     0.04700
C929        C  0.48516052  0.71833334  0.75983664     0.02700
C930        C  0.01265428  0.71687420  0.75875619     0.02700
C931        C  0.02747996  0.71652498  0.78747448    -0.17800
C932        C  0.01450765  0.71734484  0.81757116     0.02700
C933        C  0.48797562  0.72296136  0.81784888     0.02700
C934        C  0.47267171  0.72120141  0.78986208    -0.17800
H935        H  0.45083757  0.72280150  0.79137212     0.04700
H936        H  0.04933572  0.71667561  0.78619147     0.04700
C937        C  0.26087235  0.76001015  0.74855780     0.02700
C938        C  0.23247144  0.76397250  0.75057808     0.02700
C939        C  0.22050811  0.76576703  0.78112537    -0.17800
C940        C  0.23627419  0.76364357  0.80935304     0.02700
C941        C  0.26470736  0.76030561  0.80715975     0.02700
C942        C  0.27667419  0.75872054  0.77660609    -0.17800
H943        H  0.29844887  0.75606272  0.77465174     0.04700
H944        H  0.19870912  0.76757219  0.78316757     0.04700
C945        C  0.23778818  0.21674858  0.75704294     0.02700
C946        C  0.26619561  0.21554412  0.76079944     0.02700
C947        C  0.27684496  0.21585736  0.79213883    -0.17800
C948        C  0.26012826  0.21644932  0.81992952     0.02700
C949        C  0.23168732  0.21467117  0.81658159     0.02700
C950        C  0.22105507  0.21516066  0.78506466    -0.17800
H951        H  0.19935626  0.21519796  0.78216981     0.04700
H952        H  0.29854934  0.21637600  0.79484696     0.04700
C953        C  0.18362388  0.75589502  0.66559134    -0.04900
C954        C  0.18764840  0.71562630  0.69101799    -0.02000
C955        C  0.20326233  0.71860497  0.71884067     0.03000
C956        C  0.21477205  0.76195018  0.72184283    -0.04900
C957        C  0.20867575  0.80307370  0.69801672    -0.02000
C958        C  0.19384691  0.79988264  0.66956135     0.03000
C959        C  0.17468716  0.67146377  0.68935884     0.35600
C960        C  0.21618351  0.84911906  0.70355443     0.37600
C961        C  0.18983727  0.84178241  0.64397164     0.36000
C962        C  0.20663994  0.67730939  0.74507574     0.36000
N963        N  0.18679630  0.87526454  0.62356090    -0.38800
N964        N  0.20902889  0.64445774  0.76615250    -0.38800
N965        N  0.22133649  0.88640738  0.70774982    -0.38200
N966        N  0.16414877  0.63630874  0.68832167    -0.38200
C967        C  0.22221309  0.76252630  0.84130121    -0.04900
C968        C  0.20994237  0.80393013  0.84808173    -0.02000
C969        C  0.19597964  0.80259803  0.87813818     0.03000
C970        C  0.19349627  0.75935968  0.90119361    -0.04900
C971        C  0.20490140  0.71750673  0.89356084    -0.02000
C972        C  0.21907666  0.71916056  0.86369705     0.03000
C973        C  0.21024894  0.84735052  0.82324643     0.37600
C974        C  0.20147153  0.67204572  0.91571024     0.37600
C975        C  0.22841613  0.67537472  0.85496474     0.36000
C976        C  0.18269838  0.84532107  0.88392268     0.36000
N977        N  0.23509396  0.63973065  0.84849712    -0.38800
N978        N  0.17221950  0.88002053  0.88752295    -0.38800
N979        N  0.19846624  0.63525681  0.93253487    -0.38200
N980        N  0.21001982  0.88185134  0.80333280    -0.38200
C981        C  0.05673054  0.72147140  0.66768232    -0.04900
C982        C  0.05250555  0.67764406  0.68978269    -0.02000
C983        C  0.03797106  0.67621592  0.71953090     0.03000
C984        C  0.02781235  0.71830626  0.72753890    -0.04900
C985        C  0.03436650  0.76211512  0.70746496    -0.02000
C986        C  0.04763132  0.76382763  0.67700721     0.03000
C987        C  0.06462509  0.63424909  0.68353178     0.37600
C988        C  0.52934122  0.80486147  0.71811513     0.37600
C989        C  0.05186817  0.80968384  0.65565503     0.36000
C990        C  0.03550509  0.63206489  0.74341661     0.36000
N991        N  0.05530546  0.84651397  0.63905200    -0.38800
N992        N  0.03399314  0.59727891  0.76294107    -0.38800
N993        N  0.52645650  0.83954187  0.72779312    -0.38200
N994        N  0.07428291  0.59905319  0.67959378    -0.38200
C995        C  0.06347728  0.72655704  0.90265373    -0.04900
C996        C  0.05683070  0.76760703  0.87876859    -0.02000
C997        C  0.04071249  0.76445901  0.85134639     0.03000
C998        C  0.03134075  0.72028869  0.84692826    -0.04900
C999        C  0.03954310  0.67897054  0.86925198    -0.02000
C1000       C  0.05460833  0.68210764  0.89759171     0.03000
C1001       C  0.06756097  0.81317162  0.88135714     0.37600
C1002       C  0.53496700  0.63625015  0.86086652     0.37600
C1003       C  0.05987672  0.63947737  0.92201934     0.36000
C1004       C  0.03500820  0.80661428  0.82661275     0.36000
N1005       N  0.06353083  0.60501929  0.94133767    -0.38800
N1006       N  0.03089959  0.84035065  0.80679010    -0.38800
N1007       N  0.53130490  0.59947274  0.85476831    -0.38200
N1008       N  0.07615684  0.84967352  0.88295341    -0.38200
C1009       C  0.31261207  0.75764712  0.89493572    -0.04900
C1010       C  0.30888560  0.71565431  0.88240679    -0.02000
C1011       C  0.29474521  0.71721316  0.85270544     0.03000
C1012       C  0.28231551  0.75956837  0.83638191    -0.04900
C1013       C  0.28720669  0.80169948  0.84739310    -0.02000
C1014       C  0.30224365  0.80097607  0.87630290     0.03000
C1015       C  0.31877110  0.67008486  0.90009697     0.37600
C1016       C  0.27836467  0.84648918  0.82750624     0.37600
C1017       C  0.30763503  0.84562777  0.88574837     0.36000
C1018       C  0.29389923  0.67544138  0.83824833     0.36000
N1019       N  0.31165969  0.88172116  0.89273766    -0.38800
N1020       N  0.29371800  0.64220812  0.82659168    -0.38800
N1021       N  0.27186821  0.88239052  0.81141129    -0.38200
N1022       N  0.32651069  0.63345564  0.91384029    -0.38200
C1023       C  0.30274255  0.74911066  0.65859494    -0.04900
C1024       C  0.29599800  0.79394882  0.66554328    -0.02000
C1025       C  0.28346979  0.79726954  0.69567813     0.03000
C1026       C  0.27478401  0.75615934  0.71739568    -0.04900
C1027       C  0.28079000  0.71133534  0.71042878    -0.02000
C1028       C  0.29483795  0.70767748  0.68119216     0.03000
C1029       C  0.30063782  0.83695964  0.64127956     0.37600
C1030       C  0.27433690  0.66892863  0.73454369     0.37600
C1031       C  0.30196097  0.66108706  0.67537756     0.36000
C1032       C  0.28156871  0.84267978  0.70554321     0.36000
N1033       N  0.30740053  0.62359511  0.67121328    -0.38800
N1034       N  0.28080202  0.87872963  0.71372031    -0.38800
N1035       N  0.26970113  0.63493037  0.75384339    -0.38200
N1036       N  0.30349724  0.87184758  0.62219073    -0.38200
C1037       C  0.47331794  0.72678950  0.84854865    -0.04900
C1038       C  0.46580499  0.68547510  0.87095416    -0.02000
C1039       C  0.45281752  0.68876694  0.90079597     0.03000
C1040       C  0.44442869  0.73330631  0.90675920    -0.04900
C1041       C  0.45073928  0.77480154  0.88332816    -0.02000
C1042       C  0.46530244  0.77146697  0.85436000     0.03000
C1043       C  0.46956015  0.63954837  0.86229349     0.37600
C1044       C  0.44169450  0.82090925  0.88830296     0.37600
C1045       C  0.47053594  0.81375880  0.82957378     0.36000
C1046       C  0.44977391  0.64632570  0.92606191     0.36000
N1047       N  0.47427093  0.84762755  0.80977301    -0.38800
N1048       N  0.44829894  0.61211437  0.94610225    -0.38800
N1049       N  0.43467948  0.85798386  0.89185678    -0.38200
N1050       N  0.47172066  0.60283518  0.85527251    -0.38200
C1051       C  0.43546549  0.72121737  0.67326193    -0.04900
C1052       C  0.44190341  0.76374020  0.68377625    -0.02000
C1053       C  0.45763870  0.76244424  0.71226008     0.03000
C1054       C  0.46787347  0.71917527  0.73025249    -0.04900
C1055       C  0.45999558  0.67669644  0.72146577    -0.02000
C1056       C  0.44401816  0.67755822  0.69320802     0.03000
C1057       C  0.43264500  0.80941136  0.66557893     0.37600
C1058       C  0.46684249  0.63185589  0.74280058     0.37600
C1059       C  0.43536246  0.63299601  0.68600466     0.36000
C1060       C  0.46229515  0.80574750  0.72394153     0.36000
N1061       N  0.42859963  0.59700308  0.68087259    -0.38800
N1062       N  0.46547549  0.84035869  0.73337189    -0.38800
N1063       N  0.97178633  0.59527286  0.75819915    -0.38200
N1064       N  0.42523345  0.84614618  0.65164022    -0.38200
C1065       C  0.28536842  0.21561569  0.73223464    -0.04900
C1066       C  0.28865477  0.17526115  0.71787445    -0.02000
C1067       C  0.30545169  0.17679634  0.68963728     0.03000
C1068       C  0.32016752  0.21796679  0.67640216    -0.04900
C1069       C  0.31891024  0.25651546  0.69280438    -0.02000
C1070       C  0.30149256  0.25553647  0.72028955     0.03000
C1071       C  0.27610853  0.13117018  0.73322217     0.37600
C1072       C  0.33623702  0.29686306  0.68193716     0.37600
C1073       C  0.30032936  0.29571650  0.73644227     0.36000
C1074       C  0.30697310  0.13639861  0.67373585     0.36000
N1075       N  0.29943065  0.32761269  0.74949322    -0.38800
N1076       N  0.30813335  0.10411323  0.66108633    -0.38800
N1077       N  0.35026276  0.32881385  0.67351347    -0.38200
N1078       N  0.26684246  0.09528988  0.74553845    -0.38200
C1079       C  0.30093627  0.22726650  0.91068719    -0.04900
C1080       C  0.28431867  0.26470910  0.89439499    -0.02000
C1081       C  0.27158162  0.26173263  0.86447530     0.03000
C1082       C  0.27334024  0.21968566  0.85187103    -0.04900
C1083       C  0.28981801  0.18205758  0.86828140    -0.02000
C1084       C  0.30354185  0.18579936  0.89739848     0.03000
C1085       C  0.27954362  0.30589885  0.90890028     0.37600
C1086       C  0.29361370  0.14004460  0.85439302     0.37600
C1087       C  0.32107311  0.14725159  0.91294818     0.36000
C1088       C  0.25908030  0.30381970  0.84520241     0.36000
N1089       N  0.33497086  0.11622524  0.92509563    -0.38800
N1090       N  0.25008992  0.33852492  0.82999504    -0.38800
N1091       N  0.29682683  0.10680003  0.84308072    -0.38200
N1092       N  0.27535147  0.33859830  0.92051630    -0.38200
C1093       C  0.44911125  0.25045840  0.65914347    -0.04900
C1094       C  0.46550558  0.21279228  0.67571236    -0.02000
C1095       C  0.47891946  0.21635626  0.70518973     0.03000
C1096       C  0.47715919  0.25840746  0.71781939    -0.04900
C1097       C  0.46054853  0.29592454  0.70136560    -0.02000
C1098       C  0.44677327  0.29209791  0.67223733     0.03000
C1099       C  0.46897564  0.17047777  0.66213901     0.37600
C1100       C  0.45663799  0.33794058  0.71519163     0.37600
C1101       C  0.42910806  0.33043876  0.65664555     0.36000
C1102       C  0.49260057  0.17513957  0.72400866     0.36000
N1103       N  0.41499021  0.36103045  0.64432620    -0.38800
N1104       N  0.50294746  0.14173893  0.73923119    -0.38800
N1105       N  0.45333948  0.37129425  0.72636127    -0.38200
N1106       N  0.47188887  0.13684859  0.65118822    -0.38200
C1107       C  0.42722401  0.26034868  0.89297777    -0.04900
C1108       C  0.44355996  0.29990827  0.88088161    -0.02000
C1109       C  0.46081273  0.30051951  0.85312380     0.03000
C1110       C  0.46249805  0.26108828  0.83756859    -0.04900
C1111       C  0.44470985  0.22302851  0.84824429    -0.02000
C1112       C  0.42758060  0.22231215  0.87603012     0.03000
C1113       C  0.44358912  0.33914655  0.89792479     0.37600
C1114       C  0.44398887  0.18436568  0.83065156     0.37600
C1115       C  0.41032687  0.18200530  0.88736572     0.36000
C1116       C  0.47593207  0.34272956  0.83973143     0.36000
N1117       N  0.39662191  0.14978856  0.89643237    -0.38800
N1118       N  0.98423933  0.38380269  0.82671363    -0.38800
N1119       N  0.44328177  0.15379087  0.81638303    -0.38200
N1120       N  0.44368779  0.37040501  0.91159111    -0.38200
C1121       C  0.17607709  0.21571204  0.89924578    -0.04900
C1122       C  0.17735224  0.25460931  0.87225007    -0.02000
C1123       C  0.19527179  0.25396523  0.84545346     0.03000
C1124       C  0.21231068  0.21437232  0.84504139    -0.04900
C1125       C  0.20945264  0.17390474  0.87066119    -0.02000
C1126       C  0.19172592  0.17479791  0.89783393     0.03000
C1127       C  0.15979524  0.29540776  0.87165102     0.37600
C1128       C  0.22379506  0.13056015  0.86844357     0.37600
C1129       C  0.19028666  0.13415988  0.92486488     0.36000
C1130       C  0.19613137  0.29443628  0.81819996     0.36000
N1131       N  0.18907651  0.10178878  0.94648862    -0.38800
N1132       N  0.19680087  0.32672385  0.79646977    -0.38800
N1133       N  0.23472087  0.09541605  0.86675424    -0.38200
N1134       N  0.14578908  0.32805339  0.87069136    -0.38200
C1135       C  0.22480717  0.22078372  0.72400047    -0.04900
C1136       C  0.22472864  0.26417337  0.70083562    -0.02000
C1137       C  0.21252629  0.26775743  0.66965297     0.03000
C1138       C  0.19906078  0.22862482  0.66183500    -0.04900
C1139       C  0.19817598  0.18581900  0.68564384    -0.02000
C1140       C  0.21080389  0.18208893  0.71652132     0.03000
C1141       C  0.23510735  0.30632612  0.71000595     0.37600
C1142       C  0.18303692  0.14601768  0.67934012     0.37600
C1143       C  0.20821344  0.13890447  0.74127577     0.36000
C1144       C  0.21412388  0.31170816  0.64542596     0.36000
N1145       N  0.20583592  0.10455258  0.76104025    -0.38800
N1146       N  0.21539563  0.34658479  0.62594629    -0.38800
N1147       N  0.17097503  0.11392777  0.67488205    -0.38200
N1148       N  0.24262898  0.34063680  0.71713147    -0.38200
C1149       C  0.02339426  0.26147916  0.84596624    -0.04900
C1150       C  0.03956033  0.29849511  0.85237014    -0.02000
C1151       C  0.05294453  0.29386947  0.88284746     0.03000
C1152       C  0.05000073  0.25246648  0.90761796    -0.04900
C1153       C  0.03430658  0.21508718  0.90093106    -0.02000
C1154       C  0.02177064  0.21905638  0.86995318     0.03000
C1155       C  0.54468694  0.33155886  0.82833449     0.37600
C1156       C  0.03097421  0.17237918  0.92595968     0.37600
C1157       C  0.00932644  0.17785484  0.86178105     0.36000
C1158       C  0.07115552  0.33067849  0.88773180     0.36000
N1159       N  0.00008911  0.14432083  0.85534295    -0.38800
N1160       N  0.08583572  0.36002887  0.89120535    -0.38800
N1161       N  0.02826252  0.13834487  0.94593945    -0.38200
N1162       N  0.54982989  0.36288653  0.80701018    -0.38200
C1163       C  0.03653142  0.26560016  0.72557817    -0.04900
C1164       C  0.03974235  0.30578157  0.69986180    -0.02000
C1165       C  0.05789128  0.30457380  0.67312389     0.03000
C1166       C  0.07379084  0.26363531  0.67233752    -0.04900
C1167       C  0.07193397  0.22481096  0.69939692    -0.02000
C1168       C  0.05363462  0.22591301  0.72578349     0.03000
C1169       C  0.02537624  0.34926610  0.70167529     0.37600
C1170       C  0.08896221  0.18325367  0.70023934     0.37600
C1171       C  0.05258487  0.18595339  0.75339201     0.36000
C1172       C  0.05918235  0.34478810  0.64576997     0.36000
N1173       N  0.05184213  0.15417181  0.77548229    -0.38800
N1174       N  0.06000981  0.37698657  0.62398376    -0.38800
N1175       N  0.10242427  0.14995203  0.70107917    -0.38200
N1176       N  0.01443263  0.38445770  0.70319221    -0.38200
N1177       N  0.75094159  0.56669329  0.50620741    -0.36200
N1178       N  0.79270499  0.50195925  0.49302255    -0.56700
N1179       N  0.75080537  0.42651356  0.00904327    -0.36200
N1180       N  0.71023340  0.49351241  0.01993983    -0.56700
C1181       C  0.77194267  0.59599125  0.49730127     0.27400
C1182       C  0.72825904  0.59364971  0.50184466     0.27400
C1183       C  0.77145606  0.40153041  0.99882976     0.27400
C1184       C  0.72919190  0.39752537  0.01544106     0.27400
C1185       C  0.80872982  0.53706713  0.49868073     0.36000
C1186       C  0.80866813  0.46324936  0.49444506     0.36000
C1187       C  0.69517900  0.53082412  0.02450882     0.36000
C1188       C  0.69543143  0.45462895  0.03095975     0.36000
C1189       C  0.76264544  0.64200580  0.48706013    -0.21500
C1190       C  0.73504568  0.64051193  0.48966979    -0.21500
C1191       C  0.76274408  0.35618915  0.99845421    -0.21500
C1192       C  0.73656163  0.35339767  0.00952422    -0.21500
C1193       C  0.83522068  0.52123168  0.50223286    -0.22500
C1194       C  0.83523003  0.47459483  0.49925525    -0.22500
C1195       C  0.67039912  0.51584971  0.03834085    -0.22500
C1196       C  0.67052936  0.46744004  0.04231813    -0.22500
C1197       C  0.79936816  0.58287057  0.50100112    -0.17900
C1198       C  0.70190194  0.57835032  0.51170121    -0.17900
C1199       C  0.70326536  0.40863632  0.02768401    -0.17900
C1200       C  0.79904134  0.41486560  0.99571745    -0.17900
H1201       H  0.77457581  0.67339246  0.47888695     0.15000
H1202       H  0.72155214  0.67075371  0.48398087     0.15000
H1203       H  0.77455197  0.32699130  0.99280217     0.15000
H1204       H  0.72488698  0.32143271  0.01423500     0.15000
H1205       H  0.85262761  0.54069642  0.50723073     0.13300
H1206       H  0.85265431  0.45115133  0.50180566     0.13300
H1207       H  0.65381860  0.53753115  0.04438096     0.13300
H1208       H  0.65394297  0.44466699  0.05174100     0.13300
H1209       H  0.75247186  0.53221353  0.51945921     0.26600
H1210       H  0.75251385  0.45941178  0.01486235     0.26600
N1211       N  0.99726883  0.05155110  0.06194341    -0.36200
N1212       N  0.95580433  0.97715334  0.07623061    -0.56700
N1213       N  0.99747088  0.91291712  0.06126587    -0.36200
N1214       N  0.53857436  0.98368754  0.05236121    -0.56700
C1215       C  0.97685607  0.07471864  0.07430199     0.27400
C1216       C  0.51977658  0.07997994  0.05777373     0.27400
C1217       C  0.97651461  0.88371554  0.07026455     0.27400
C1218       C  0.51844315  0.88525945  0.06457827     0.27400
C1219       C  0.94005507  0.01621448  0.07422200     0.36000
C1220       C  0.93998633  0.94314895  0.06856559     0.36000
C1221       C  0.55413224  0.02217863  0.04403977     0.36000
C1222       C  0.55382957  0.94633352  0.04839588     0.36000
C1223       C  0.98537585  0.11949843  0.07649556    -0.21500
C1224       C  0.51206772  0.12506638  0.06145409    -0.21500
C1225       C  0.98575584  0.83748272  0.07961080    -0.21500
C1226       C  0.51084017  0.83875078  0.07638693    -0.21500
C1227       C  0.91383281  0.00632124  0.06670477    -0.22500
C1228       C  0.91384384  0.96006125  0.06290112    -0.22500
C1229       C  0.57974375  0.00908576  0.03507051    -0.22500
C1230       C  0.57952621  0.96089397  0.03771760    -0.22500
C1231       C  0.94934106  0.06149088  0.07672129    -0.17900
C1232       C  0.54595691  0.06824142  0.04669939    -0.17900
C1233       C  0.54508392  0.89924483  0.05546824    -0.17900
C1234       C  0.94920397  0.89729298  0.06643647    -0.17900
H1235       H  0.97345815  0.14765265  0.08358151     0.15000
H1236       H  0.52372752  0.15706129  0.05580669     0.15000
H1237       H  0.97379993  0.80604633  0.08738465     0.15000
H1238       H  0.52382517  0.80775568  0.08197832     0.15000
H1239       H  0.89673068  0.03047107  0.06296035     0.13300
H1240       H  0.89674361  0.94153080  0.05593572     0.13300
H1241       H  0.59694649  0.03155857  0.02801516     0.13300
H1242       H  0.59642226  0.93909496  0.03277139     0.13300
H1243       H  0.99536579  0.02027112  0.05377368     0.26600
H1244       H  0.99577033  0.94759185  0.04848210     0.26600
Zr1245     Zr  0.61178404  0.18028152  0.49361481     2.17500
O1246       O  0.62357422  0.10679459  0.47599409    -0.50900
O1247       O  0.57781882  0.20526165  0.45097175    -0.74100
O1248       O  0.57887489  0.12006991  0.01511400    -0.80900
O1249       O  0.66571882  0.25409038  0.44106711    -0.82600
O1250       O  0.57018950  0.12211341  0.06902918    -0.78300
O1251       O  0.64174645  0.18672537  0.44435887    -0.89900
O1252       O  0.56017157  0.27616545  0.45725755    -0.75900
O1253       O  0.57896369  0.21093336  0.02691129    -0.85300
O1254       O  0.61306183  0.26400391  0.47572520    -0.85000
O1255       O  0.62639623  0.15437911  0.04971994    -0.71800
O1256       O  0.65633753  0.20726585  0.00544629    -0.83900
Zr1257     Zr  0.63601052  0.29532865  0.07878154     2.26400
Zr1258     Zr  0.59388310  0.18640072  0.08280677     2.06300
Zr1259     Zr  0.65639743  0.28674008  0.48935932     2.10000
Zr1260     Zr  0.57828899  0.29455204  0.00977890     1.78800
O1261       O  0.69895561  0.30485930  0.96332366    -0.92700
O1262       O  0.53124293  0.27805014  0.02544277    -0.40500
O1263       O  0.62170423  0.32251545  0.02238787    -0.77200
O1264       O  0.59172794  0.27057369  0.06628113    -0.95900
O1265       O  0.63707675  0.21139504  0.09522339    -0.89200
O1266       O  0.66936209  0.26569278  0.04548675    -0.92000
C1267       C  0.56249628  0.24182324  0.44181153     1.01700
C1268       C  0.65906423  0.21753508  0.43005447     1.14700
C1269       C  0.56668443  0.10551554  0.04307610     1.05500
O1270       O  0.54914259  0.17519035  0.10795712    -0.94200
O1271       O  0.58440418  0.21747276  0.13183749    -0.89900
O1272       O  0.60735199  0.28582461  0.12916614    -0.83100
C1273       C  0.59050439  0.25402352  0.14322749     1.12100
O1274       O  0.69277197  0.12040073  0.03908543    -0.96100
Zr1275     Zr  0.66990669  0.18207755  0.06190229     1.88900
O1276       O  0.66906857  0.26744622  0.12203286    -0.72800
O1277       O  0.61158508  0.11967855  0.12294172    -0.52000
O1278       O  0.66983755  0.10559286  0.09972034    -0.96700
O1279       O  0.71758386  0.19667671  0.04894770    -0.53900
O1280       O  0.68718972  0.19783127  0.11383214    -0.73300
C1281       C  0.68450865  0.23082302  0.13049613     0.99000
O1282       O  0.62194747  0.36929761  0.09406060    -0.62100
O1283       O  0.64123840  0.35357424  0.44745309    -0.56900
O1284       O  0.67004294  0.35684373  0.05898807    -0.93600
O1285       O  0.67847085  0.35549566  0.00490968    -0.92000
O1286       O  0.58051491  0.36920889  0.46556469    -0.92400
O1287       O  0.55357514  0.35725696  0.02935815    -0.91200
C1288       C  0.68224319  0.37167727  0.03105554     1.17900
H1289       H  0.61086535  0.27400035  0.45216737     0.33800
H1290       H  0.57818324  0.28328804  0.07917813     0.44700
H1291       H  0.68708451  0.27711138  0.04886134     0.38200
H1292       H  0.62621416  0.12023499  0.05509673     0.34700
H1293       H  0.52927004  0.24757502  0.52155545     0.26500
H1294       H  0.62351655  0.13385524  0.13720709     0.32400
H1295       H  0.68850760  0.10126064  0.10811762     0.38300
H1296       H  0.56210465  0.37278554  0.45631430     0.32800
H1297       H  0.63816562  0.37964424  0.45944632     0.31700
H1298       H  0.70384364  0.31788017  0.45158756     0.33300
H1299       H  0.72434043  0.21247474  0.06633275     0.32300
H1300       H  0.56725058  0.37257304  0.04078791     0.36300
H1301       H  0.63828578  0.38205670  0.10242906     0.29000
H1302       H  0.60633160  0.09222451  0.47191159     0.33300
H1303       H  0.68971478  0.12927783  0.01499884     0.36100
H1304       H  0.65741378  0.36306133  0.43353866     0.28700
H1305       H  0.61800876  0.39096119  0.07281503     0.41600
H1306       H  0.53899546  0.20456694  0.09873696     0.31700
H1307       H  0.53174807  0.24861746  0.04250511     0.39300
H1308       H  0.71788751  0.22145579  0.02855333     0.31100
H1309       H  0.59591290  0.10835180  0.13730566     0.31200
H1310       H  0.62674109  0.08630225  0.99215965     0.31500
Zr1311     Zr  0.88549168  0.18179350  0.09620449     2.17500
O1312       O  0.87552702  0.11162906  0.13822694    -0.50900
O1313       O  0.91841486  0.20881211  0.13206189    -0.74100
O1314       O  0.91665628  0.11518969  0.09300205    -0.80900
O1315       O  0.82770271  0.25364450  0.12406928    -0.82600
O1316       O  0.93056967  0.12295225  0.03941410    -0.78300
O1317       O  0.85350291  0.18778547  0.14153264    -0.89900
O1318       O  0.93408233  0.28077106  0.10677810    -0.75900
O1319       O  0.91993564  0.21506396  0.05794463    -0.85300
O1320       O  0.88152664  0.26563661  0.08942364    -0.85000
O1321       O  0.87649216  0.15600480  0.04533081    -0.71800
O1322       O  0.84121821  0.20192014  0.07405027    -0.83900
Zr1323     Zr  0.86250650  0.29506045  0.47631512     2.26400
Zr1324     Zr  0.91050827  0.19180630  0.00678480     2.06300
Zr1325     Zr  0.83819318  0.28569479  0.06672774     2.10000
Zr1326     Zr  0.91598525  0.29855939  0.05154168     1.78800
O1327       O  0.78949875  0.27789539  0.07357186    -0.92700
O1328       O  0.96427168  0.28524443  0.04492563    -0.40500
O1329       O  0.87242946  0.32143192  0.02862021    -0.77200
O1330       O  0.90825251  0.27582809  0.99988190    -0.95900
O1331       O  0.86568687  0.21123585  0.48359351    -0.89200
O1332       O  0.82955775  0.26248845  0.01559777    -0.92000
C1333       C  0.93255929  0.24607051  0.13150745     1.01700
C1334       C  0.83511374  0.21800964  0.14610935     1.14700
C1335       C  0.93029194  0.10181280  0.06962550     1.05500
O1336       O  0.95907292  0.19771433  0.99743075    -0.94200
O1337       O  0.91907809  0.22084144  0.44814274    -0.89900
O1338       O  0.89434120  0.28804448  0.43078586    -0.83100
C1339       C  0.91231618  0.25705239  0.42619582     1.12100
O1340       O  0.80965239  0.11534308  0.05915704    -0.96100
Zr1341     Zr  0.83307709  0.17910977  0.02238536     1.88900
O1342       O  0.82962757  0.26694341  0.44106612    -0.72800
O1343       O  0.90356176  0.12417777  0.47947749    -0.52000
O1344       O  0.84093226  0.10424911  0.50514958    -0.96700
O1345       O  0.78427121  0.18861460  0.02707654    -0.53900
O1346       O  0.81467310  0.19473719  0.46703983    -0.73300
C1347       C  0.81575134  0.22928493  0.44208913     0.99000
O1348       O  0.87207327  0.36661700  0.43536640    -0.62100
O1349       O  0.84016954  0.34978228  0.09700474    -0.56900
O1350       O  0.83066479  0.36063404  0.47867765    -0.93600
O1351       O  0.81879523  0.35494624  0.03353030    -0.92000
O1352       O  0.91009631  0.37163495  0.07181602    -0.92400
O1353       O  0.93702387  0.36660367  0.01637320    -0.91200
C1354       C  0.81908449  0.37743036  0.50200435     1.17900
H1355       H  0.88255301  0.27606525  0.11014986     0.33800
H1356       H  0.92055512  0.28983202  0.48294651     0.44700
H1357       H  0.81201084  0.27345287  0.00739813     0.38200
H1358       H  0.87784281  0.12195391  0.04893308     0.34700
H1359       H  0.97302281  0.30730466  0.05691052     0.26500
H1360       H  0.92213853  0.11457760  0.47437213     0.32400
H1361       H  0.82289981  0.09092836  0.50310728     0.38300
H1362       H  0.89414406  0.38742653  0.06007799     0.32800
H1363       H  0.84730262  0.37722138  0.08104360     0.31700
H1364       H  0.78352902  0.30588374  0.08235042     0.33300
H1365       H  0.77888328  0.21326949  0.00788285     0.32300
H1366       H  0.92366220  0.37784256  0.99885467     0.36300
H1367       H  0.85527581  0.37444924  0.42261586     0.29000
H1368       H  0.89190831  0.10557436  0.15195780     0.33300
H1369       H  0.80950896  0.12443592  0.08101853     0.36100
H1370       H  0.82108981  0.35827888  0.10056407     0.28700
H1371       H  0.87400832  0.39211703  0.44797580     0.41600
H1372       H  0.96694197  0.19371041  0.01971049     0.31700
H1373       H  0.96807703  0.25353369  0.05854325     0.39300
H1374       H  0.78151181  0.20368224  0.04636876     0.31100
H1375       H  0.89715759  0.09812144  0.49716056     0.31200
H1376       H  0.87478044  0.08499750  0.12647709     0.31500
Zr1377     Zr  0.87673576  0.78879004  0.08116135     2.17500
O1378       O  0.86515180  0.86456492  0.09540179    -0.50900
O1379       O  0.90286684  0.75872678  0.13087439    -0.74100
O1380       O  0.84054823  0.77750590  0.12166186    -0.80900
O1381       O  0.93705917  0.84302059  0.03372354    -0.82600
O1382       O  0.81383233  0.71851049  0.11190669    -0.78300
O1383       O  0.90991297  0.85039457  0.07724750    -0.89900
O1384       O  0.92323010  0.68989683  0.12539076    -0.75900
O1385       O  0.86841133  0.70613504  0.09291570    -0.85300
O1386       O  0.91578488  0.75246817  0.06272872    -0.85000
O1387       O  0.83659935  0.77934041  0.05101137    -0.71800
O1388       O  0.88013082  0.82209577  0.02313903    -0.83900
Zr1389     Zr  0.87240250  0.69180333  0.48654462     2.26400
Zr1390     Zr  0.82944824  0.69581168  0.06152740     2.06300
Zr1391     Zr  0.91906423  0.78445773  0.00511217     2.10000
Zr1392     Zr  0.90731860  0.67012200  0.07420290     1.78800
O1393       O  0.92753892  0.85840555  0.46689987    -0.92700
O1394       O  0.88730960  0.60647809  0.11471184    -0.40500
O1395       O  0.91185270  0.70081295  0.01582779    -0.77200
O1396       O  0.86835872  0.65761520  0.04356565    -0.95900
O1397       O  0.83268104  0.72700285  0.00377798    -0.89200
O1398       O  0.88089330  0.77458865  0.47496081    -0.92000
C1399       C  0.91885632  0.72348079  0.14111221     1.01700
C1400       C  0.93053220  0.86177006  0.05848045     1.14700
C1401       C  0.82062525  0.74932292  0.12863057     1.05500
O1402       O  0.81788001  0.62437139  0.10121505    -0.94200
O1403       O  0.81224917  0.63528714  0.03412910    -0.89900
O1404       O  0.83889684  0.63013311  0.49030988    -0.83100
C1405       C  0.81857205  0.61673042  0.00920721     1.12100
O1406       O  0.82611804  0.88423013  0.00617859    -0.96100
Zr1407     Zr  0.84088270  0.80944188  0.99264872     1.88900
O1408       O  0.84541043  0.72035824  0.43750791    -0.72800
O1409       O  0.78270117  0.72135929  0.05163734    -0.52000
O1410       O  0.79209682  0.82028572  0.99344886    -0.96700
O1411       O  0.86043443  0.87195196  0.44925310    -0.53900
O1412       O  0.82416598  0.78811671  0.44351847    -0.73300
C1413       C  0.82866524  0.75458805  0.42777405     0.99000
O1414       O  0.88642688  0.61694510  0.47265384    -0.62100
O1415       O  0.96714581  0.76582526  0.00970784    -0.56900
O1416       O  0.90898623  0.70342961  0.44624304    -0.93600
O1417       O  0.93697566  0.75973212  0.45769928    -0.92000
O1418       O  0.95589169  0.65581260  0.07637939    -0.92400
O1419       O  0.92384484  0.59524900  0.06255692    -0.91200
C1420       C  0.92972859  0.72998585  0.44028348     1.17900
H1421       H  0.93182518  0.75932532  0.07380985     0.33800
H1422       H  0.86548610  0.62396134  0.04684981     0.44700
H1423       H  0.88402613  0.78631416  0.45164632     0.38200
H1424       H  0.82150164  0.79510987  0.05936954     0.34700
H1425       H  0.90279791  0.58676404  0.12447054     0.26500
H1426       H  0.77655846  0.70555185  0.03396089     0.32400
H1427       H  0.78681155  0.81040403  0.51455092     0.38300
H1428       H  0.96365878  0.68479549  0.08161373     0.32800
H1429       H  0.97662821  0.79797064  0.50508565     0.31700
H1430       H  0.94682779  0.86530271  0.46928823     0.33300
H1431       H  0.87321526  0.88913073  0.46062234     0.32300
H1432       H  0.92612560  0.60124811  0.03823946     0.36300
H1433       H  0.88802775  0.62289776  0.44826541     0.29000
H1434       H  0.86197666  0.85804805  0.11958318     0.33300
H1435       H  0.84227395  0.89640939  0.01537667     0.36100
H1436       H  0.97198317  0.76889120  0.03232759     0.28700
H1437       H  0.90127902  0.60681374  0.98089664     0.41600
H1438       H  0.79793169  0.62508311  0.10261992     0.31700
H1439       H  0.88046380  0.62176061  0.13265138     0.39300
H1440       H  0.84543748  0.89474019  0.44262253     0.31100
H1441       H  0.77275784  0.70545801  0.07162262     0.31200
H1442       H  0.84725093  0.87298099  0.08548348     0.31500
Zr1443     Zr  0.63134396  0.69239940  0.48481062     2.17500
O1444       O  0.62547224  0.61937626  0.46488119    -0.50900
O1445       O  0.66094155  0.72548028  0.43944605    -0.74100
O1446       O  0.59803525  0.70398268  0.44035681    -0.80900
O1447       O  0.68723721  0.63236624  0.04531153    -0.82600
O1448       O  0.57127911  0.76661340  0.44561079    -0.78300
O1449       O  0.66502738  0.62951658  0.49444477    -0.89900
O1450       O  0.68355967  0.78783467  0.45066868    -0.75900
O1451       O  0.62654723  0.77605537  0.47267143    -0.85300
O1452       O  0.66815844  0.72290092  0.01152076    -0.85000
O1453       O  0.58848992  0.70282662  0.01182948    -0.71800
O1454       O  0.63015880  0.65719969  0.04602288    -0.83900
Zr1455     Zr  0.61779006  0.78920861  0.08160661     2.26400
Zr1456     Zr  0.58340880  0.78680513  0.99969178     2.06300
Zr1457     Zr  0.66635974  0.69287636  0.06961956     2.10000
Zr1458     Zr  0.66209254  0.80581595  0.99881506     1.78800
O1459       O  0.66932594  0.62097462  0.11189998    -0.92700
O1460       O  0.65025230  0.87746020  0.46039916    -0.40500
O1461       O  0.66070951  0.77666046  0.05737280    -0.77200
O1462       O  0.61987123  0.82223613  0.02332621    -0.95900
O1463       O  0.58128277  0.75588221  0.05768043    -0.89200
O1464       O  0.62416796  0.70583883  0.09458366    -0.92000
C1465       C  0.67892741  0.75747425  0.43271249     1.01700
C1466       C  0.68389180  0.61514880  0.01948356     1.14700
C1467       C  0.57867448  0.73354858  0.43065015     1.05500
O1468       O  0.58417200  0.86338100  0.45555903    -0.94200
O1469       O  0.56151873  0.84615535  0.02429444    -0.89900
O1470       O  0.58197420  0.84841632  0.07297062    -0.83100
C1471       C  0.56426190  0.86223603  0.05068209     1.12100
O1472       O  0.57152192  0.60295411  0.05204342    -0.96100
Zr1473     Zr  0.58786355  0.67262273  0.07013980     1.88900
O1474       O  0.58845756  0.75796625  0.12790749    -0.72800
O1475       O  0.53571000  0.76722953  0.00273720    -0.52000
O1476       O  0.53888000  0.66840774  0.06839247    -0.96700
O1477       O  0.60200648  0.60248723  0.10980221    -0.53900
O1478       O  0.56787110  0.69197994  0.11936557    -0.73300
C1479       C  0.57167306  0.72411479  0.13605236     0.99000
O1480       O  0.63024060  0.86137145  0.09954440    -0.62100
O1481       O  0.71486861  0.70551593  0.06731800    -0.56900
O1482       O  0.65043795  0.77948281  0.12632071    -0.93600
O1483       O  0.67874327  0.71942849  0.11959633    -0.92000
O1484       O  0.71107770  0.80172059  0.00335833    -0.92400
O1485       O  0.68166460  0.87540545  0.01378171    -0.91200
C1486       C  0.67052200  0.75126127  0.13525085     1.17900
H1487       H  0.68519796  0.71469501  0.00244081     0.33800
H1488       H  0.61719700  0.85611381  0.01962783     0.44700
H1489       H  0.62479578  0.69400818  0.11814288     0.38200
H1490       H  0.57429364  0.68830276  0.00172525     0.34700
H1491       H  0.66750132  0.89390866  0.45426980     0.26500
H1492       H  0.52887877  0.77742427  0.51786775     0.32400
H1493       H  0.53381076  0.64393538  0.08786880     0.38300
H1494       H  0.71719965  0.77533321  0.51140744     0.32800
H1495       H  0.71702155  0.73868904  0.06972499     0.31700
H1496       H  0.68885402  0.61644153  0.11638886     0.33300
H1497       H  0.58519225  0.58485830  0.11640095     0.32300
H1498       H  0.68250331  0.86776664  0.03820395     0.36300
H1499       H  0.62692175  0.88754784  0.08045312     0.29000
H1500       H  0.62380617  0.62844549  0.44057672     0.33300
H1501       H  0.58762444  0.58977252  0.04251744     0.36100
H1502       H  0.72176810  0.68626131  0.08820433     0.28700
H1503       H  0.61652622  0.86577735  0.11633989     0.41600
H1504       H  0.56519261  0.86837786  0.44840589     0.31700
H1505       H  0.64490337  0.86621645  0.44034334     0.39300
H1506       H  0.60737281  0.61418765  0.12966017     0.31100
H1507       H  0.52653509  0.79593858  0.99035496     0.31200
H1508       H  0.60743973  0.60816081  0.47317475     0.31500
C1509       C  0.51745492  0.25681953  0.25490396     0.02700
C1510       C  0.98922791  0.26233199  0.25158944     0.02700
C1511       C  0.97224141  0.26170408  0.27932877    -0.17800
C1512       C  0.98249374  0.26071984  0.31099926     0.02700
C1513       C  0.50992438  0.25487377  0.31438707     0.02700
C1514       C  0.52727187  0.25543759  0.28692250    -0.17800
H1515       H  0.54889350  0.25459615  0.29058408     0.04700
H1516       H  0.95056814  0.26152223  0.27623787     0.04700
C1517       C  0.98301280  0.71784027  0.25998485     0.02700
C1518       C  0.51116786  0.71871079  0.25743138     0.02700
C1519       C  0.52658385  0.71891881  0.28553189    -0.17800
C1520       C  0.51423543  0.71887290  0.31604913     0.02700
C1521       C  0.98637641  0.72066037  0.31844074     0.02700
C1522       C  0.97079898  0.71865119  0.29061638    -0.17800
H1523       H  0.94897974  0.71868939  0.29270122     0.04700
H1524       H  0.54840068  0.72011237  0.28345318     0.04700
C1525       C  0.76278145  0.75829328  0.24933646     0.02700
C1526       C  0.73431760  0.76134027  0.25111686     0.02700
C1527       C  0.72199014  0.76209647  0.28161155    -0.17800
C1528       C  0.73744782  0.75974793  0.31006463     0.02700
C1529       C  0.76590690  0.75694437  0.30827729     0.02700
C1530       C  0.77825928  0.75639182  0.27776041    -0.17800
H1531       H  0.80006846  0.75423091  0.27611255     0.04700
H1532       H  0.70016827  0.76361723  0.28337451     0.04700
C1533       C  0.73840256  0.21557805  0.25760006     0.02700
C1534       C  0.76671048  0.21452312  0.26239520     0.02700
C1535       C  0.77651153  0.21419455  0.29420713    -0.17800
C1536       C  0.75911136  0.21386081  0.32157471     0.02700
C1537       C  0.73068052  0.21296185  0.31711183     0.02700
C1538       C  0.72095620  0.21411028  0.28503870    -0.17800
H1539       H  0.69936201  0.21414871  0.28127742     0.04700
H1540       H  0.79813503  0.21446944  0.29770864     0.04700
C1541       C  0.68532984  0.75482732  0.16594422    -0.04900
C1542       C  0.69159095  0.71334350  0.18949657    -0.02000
C1543       C  0.70768536  0.71566105  0.21702445     0.03000
C1544       C  0.71688447  0.75958193  0.22213977    -0.04900
C1545       C  0.70820122  0.80144967  0.20070538    -0.02000
C1546       C  0.69354303  0.79908133  0.17195117     0.03000
C1547       C  0.68025607  0.66838617  0.18649544     0.35600
C1548       C  0.71270487  0.84690945  0.20933619     0.37600
C1549       C  0.68783726  0.84218330  0.14811641     0.36000
C1550       C  0.71359100  0.67291890  0.24111377     0.36000
N1551       N  0.68360630  0.87669725  0.12906076    -0.38800
N1552       N  0.71792785  0.63875291  0.26044496    -0.38800
N1553       N  0.71548552  0.88329064  0.21646633    -0.38200
N1554       N  0.67096434  0.63255286  0.18451061    -0.38200
C1555       C  0.72312297  0.75937914  0.34170042    -0.04900
C1556       C  0.71690605  0.80219971  0.35156742    -0.02000
C1557       C  0.70355201  0.80190384  0.38192895     0.03000
C1558       C  0.69533123  0.75848700  0.40206131    -0.04900
C1559       C  0.70148084  0.71553134  0.39155185    -0.02000
C1560       C  0.71456199  0.71628868  0.36108811     0.03000
C1561       C  0.72245097  0.84669448  0.32918172     0.37600
C1562       C  0.69488171  0.66995740  0.41200554     0.37600
C1563       C  0.71751736  0.67288369  0.34867067     0.36000
C1564       C  0.69785619  0.84668107  0.39152993     0.36000
N1565       N  0.71917380  0.63814914  0.33883080    -0.38800
N1566       N  0.69384635  0.88293367  0.39866361    -0.38800
N1567       N  0.68969832  0.63330246  0.42784221    -0.38200
N1568       N  0.72634573  0.88205136  0.31095132    -0.38200
C1569       C  0.55554252  0.72237486  0.16686251    -0.04900
C1570       C  0.54881591  0.67844198  0.18750050    -0.02000
C1571       C  0.53370615  0.67739897  0.21671738     0.03000
C1572       C  0.52573813  0.71994505  0.22591626    -0.04900
C1573       C  0.53395473  0.76350209  0.20678486    -0.02000
C1574       C  0.54755908  0.76497319  0.17660535     0.03000
C1575       C  0.55854984  0.63401493  0.18017886     0.37600
C1576       C  0.03263649  0.80580775  0.22090410     0.37600
C1577       C  0.55297254  0.81080861  0.15577823     0.36000
C1578       C  0.52820381  0.63249719  0.23869408     0.36000
N1579       N  0.55717655  0.84765006  0.13958328    -0.38800
N1580       N  0.52433518  0.59658285  0.25629209    -0.38800
N1581       N  0.03171713  0.83967184  0.23184359    -0.38200
N1582       N  0.56606618  0.59789448  0.17529722    -0.38200
C1583       C  0.56346244  0.72926201  0.40032653    -0.04900
C1584       C  0.55726115  0.77009044  0.37606772    -0.02000
C1585       C  0.54135480  0.76662580  0.34854775     0.03000
C1586       C  0.53159483  0.72239941  0.34473012    -0.04900
C1587       C  0.53979092  0.68127831  0.36712768    -0.02000
C1588       C  0.55480036  0.68466100  0.39535357     0.03000
C1589       C  0.56835444  0.81553696  0.37833909     0.37600
C1590       C  0.03809867  0.63716952  0.35668965     0.37600
C1591       C  0.56046152  0.64190026  0.41947729     0.36000
C1592       C  0.53637325  0.80832696  0.32314963     0.36000
N1593       N  0.56439111  0.60698528  0.43822438    -0.38800
N1594       N  0.53293827  0.84176150  0.30283208    -0.38800
N1595       N  0.03561971  0.60084358  0.34937883    -0.38200
N1596       N  0.57729690  0.85188616  0.37968716    -0.38200
C1597       C  0.81329866  0.75505098  0.39641456    -0.04900
C1598       C  0.80553536  0.71204990  0.38747162    -0.02000
C1599       C  0.79062315  0.71266935  0.35842332     0.03000
C1600       C  0.78316033  0.75589310  0.33786536    -0.04900
C1601       C  0.79274390  0.79835322  0.34496465    -0.02000
C1602       C  0.80657248  0.79834270  0.37467010     0.03000
C1603       C  0.81225965  0.66662279  0.40813102     0.37600
C1604       C  0.79019056  0.84167183  0.32029851     0.37600
C1605       C  0.81394294  0.84337203  0.38218969     0.36000
C1606       C  0.78439818  0.66859193  0.34859507     0.36000
N1607       N  0.81923196  0.87977236  0.38789355    -0.38800
N1608       N  0.78003545  0.63323717  0.34067778    -0.38800
N1609       N  0.78884168  0.87574470  0.30007326    -0.38200
N1610       N  0.81760213  0.62991769  0.42397114    -0.38200
C1611       C  0.80484776  0.75163172  0.15882475    -0.04900
C1612       C  0.79603908  0.79571768  0.16524258    -0.02000
C1613       C  0.78325223  0.79796519  0.19545507     0.03000
C1614       C  0.77704198  0.75597901  0.21807268    -0.04900
C1615       C  0.78592860  0.71194373  0.21185691    -0.02000
C1616       C  0.80018747  0.70982525  0.18254728     0.03000
C1617       C  0.79957843  0.83884228  0.14066842     0.37600
C1618       C  0.78179224  0.66898020  0.23638944     0.37600
C1619       C  0.81154034  0.66494714  0.17788763     0.36000
C1620       C  0.77851668  0.84355754  0.20428577     0.36000
N1621       N  0.82082193  0.62922782  0.17442896    -0.38800
N1622       N  0.77559620  0.88016436  0.21128258    -0.38800
N1623       N  0.77896450  0.63438292  0.25579149    -0.38200
N1624       N  0.80194827  0.87354053  0.12124523    -0.38200
C1625       C  0.97218110  0.72308260  0.34985753    -0.04900
C1626       C  0.96717208  0.68133478  0.37328986    -0.02000
C1627       C  0.95484876  0.68375139  0.40380015     0.03000
C1628       C  0.94559909  0.72770309  0.41003109    -0.04900
C1629       C  0.94926223  0.76923467  0.38567577    -0.02000
C1630       C  0.96242356  0.76685926  0.35563076     0.03000
C1631       C  0.97252385  0.63563982  0.36490761     0.37600
C1632       C  0.93828272  0.81415710  0.39073086     0.37600
C1633       C  0.96412793  0.80891135  0.32973284     0.36000
C1634       C  0.95245927  0.64099049  0.42894389     0.36000
N1635       N  0.96488963  0.84249358  0.30904085    -0.38800
N1636       N  0.95120677  0.60644328  0.44871931    -0.38800
N1637       N  0.92946937  0.85000179  0.39460889    -0.38200
N1638       N  0.97596298  0.59903559  0.35808136    -0.38200
C1639       C  0.93392935  0.72212432  0.17273595    -0.04900
C1640       C  0.94374041  0.76434696  0.18081468    -0.02000
C1641       C  0.95892699  0.76278410  0.20973398     0.03000
C1642       C  0.96553196  0.71918324  0.23047118    -0.04900
C1643       C  0.95452256  0.67736867  0.22376570    -0.02000
C1644       C  0.93905432  0.67864928  0.19501566     0.03000
C1645       C  0.93889601  0.80991100  0.15932559     0.37600
C1646       C  0.95800899  0.63315781  0.24729974     0.37600
C1647       C  0.92772204  0.63503378  0.18929132     0.36000
C1648       C  0.96644242  0.80656563  0.21911061     0.36000
N1649       N  0.91886005  0.59982225  0.18524022    -0.38800
N1650       N  0.97172187  0.84186958  0.22654931    -0.38800
N1651       N  0.46139711  0.59800315  0.26421127    -0.38200
N1652       N  0.93520657  0.84680223  0.14282008    -0.38200
C1653       C  0.78658649  0.21327604  0.23467945    -0.04900
C1654       C  0.79002036  0.17198889  0.22142674    -0.02000
C1655       C  0.80689049  0.17218573  0.19340037     0.03000
C1656       C  0.82122780  0.21329654  0.17899993    -0.04900
C1657       C  0.82013075  0.25266789  0.19460830    -0.02000
C1658       C  0.80301069  0.25266133  0.22225682     0.03000
C1659       C  0.77734149  0.12848291  0.23771429     0.37600
C1660       C  0.83712718  0.29311033  0.18244697     0.37600
C1661       C  0.80251281  0.29330842  0.23792941     0.36000
C1662       C  0.80880760  0.13049943  0.17893041     0.36000
N1663       N  0.80237109  0.32586319  0.25032042    -0.38800
N1664       N  0.81026782  0.09704754  0.16754942    -0.38800
N1665       N  0.85085493  0.32510219  0.17276293    -0.38200
N1666       N  0.76781889  0.09330817  0.25100538    -0.38200
C1667       C  0.80024377  0.22462839  0.41211920    -0.04900
C1668       C  0.78299428  0.26151034  0.39635886    -0.02000
C1669       C  0.76950522  0.25792833  0.36703378     0.03000
C1670       C  0.77180505  0.21631410  0.35400100    -0.04900
C1671       C  0.78900841  0.17926911  0.36988447    -0.02000
C1672       C  0.80307351  0.18336191  0.39870416     0.03000
C1673       C  0.77865386  0.30309725  0.41054106     0.37600
C1674       C  0.79314715  0.13743050  0.35588858     0.37600
C1675       C  0.82138251  0.14565994  0.41372432     0.36000
C1676       C  0.75529937  0.29899183  0.34883206     0.36000
N1677       N  0.83595977  0.11555527  0.42566352    -0.38800
N1678       N  0.74467705  0.33270088  0.33444757    -0.38800
N1679       N  0.79663025  0.10410074  0.34473965    -0.38200
N1680       N  0.77489968  0.33633248  0.42169979    -0.38200
C1681       C  0.94763643  0.25042724  0.16179072    -0.04900
C1682       C  0.96402085  0.21283348  0.17833759    -0.02000
C1683       C  0.97809582  0.21714743  0.20708940     0.03000
C1684       C  0.97614202  0.25923892  0.21961576    -0.04900
C1685       C  0.95895701  0.29620228  0.20373368    -0.02000
C1686       C  0.94528685  0.29229343  0.17465459     0.03000
C1687       C  0.96648442  0.16945801  0.16581867     0.37600
C1688       C  0.95424163  0.33751517  0.21818609     0.37600
C1689       C  0.92786076  0.33090249  0.15887724     0.36000
C1690       C  0.99279774  0.17653602  0.22509116     0.36000
N1691       N  0.91408491  0.36194143  0.14644567    -0.38800
N1692       N  0.00394023  0.14316209  0.23913255    -0.38800
N1693       N  0.95015469  0.37012959  0.22994217    -0.38200
N1694       N  0.96836332  0.13470724  0.15602215    -0.38200
C1695       C  0.92696103  0.26212259  0.39374187    -0.04900
C1696       C  0.94314454  0.30180529  0.38136881    -0.02000
C1697       C  0.96076482  0.30178936  0.35401033     0.03000
C1698       C  0.96290625  0.26170969  0.33915182    -0.04900
C1699       C  0.94504052  0.22376155  0.34989498    -0.02000
C1700       C  0.92729650  0.22399214  0.37696464     0.03000
C1701       C  0.94197554  0.34252263  0.39694702     0.37600
C1702       C  0.94466319  0.18438446  0.33298209     0.37600
C1703       C  0.90869575  0.18532531  0.38714043     0.36000
C1704       C  0.97547412  0.34421803  0.33997749     0.36000
N1705       N  0.89365097  0.15479891  0.39517827    -0.38800
N1706       N  0.48710793  0.37501305  0.32812401    -0.38800
N1707       N  0.94415935  0.15306320  0.31939798    -0.38200
N1708       N  0.94102898  0.37532360  0.40907248    -0.38200
C1709       C  0.67340938  0.21182496  0.39885143    -0.04900
C1710       C  0.67404284  0.25027545  0.37148740    -0.02000
C1711       C  0.69208867  0.25004012  0.34466724     0.03000
C1712       C  0.71043744  0.21181454  0.34501398    -0.04900
C1713       C  0.70832596  0.17183729  0.37119188    -0.02000
C1714       C  0.69012021  0.17200212  0.39801947     0.03000
C1715       C  0.65638773  0.29092195  0.37119350     0.37600
C1716       C  0.72413408  0.12959693  0.37016401     0.37600
C1717       C  0.68964444  0.13205509  0.42561946     0.36000
C1718       C  0.69197725  0.28991523  0.31695738     0.36000
N1719       N  0.68934515  0.10020082  0.44767541    -0.38800
N1720       N  0.69175455  0.32183971  0.29494157    -0.38800
N1721       N  0.73621065  0.09512898  0.36973338    -0.38200
N1722       N  0.64249401  0.32354100  0.37097345    -0.38200
C1723       C  0.72614185  0.21863507  0.22414395    -0.04900
C1724       C  0.72663665  0.26137229  0.20035936    -0.02000
C1725       C  0.71387983  0.26482289  0.16949101     0.03000
C1726       C  0.69980572  0.22592385  0.16217556    -0.04900
C1727       C  0.69906834  0.18327808  0.18622622    -0.02000
C1728       C  0.71182121  0.17996090  0.21707122     0.03000
C1729       C  0.73825551  0.30323618  0.20855371     0.37600
C1730       C  0.68396202  0.14326686  0.18024431     0.37600
C1731       C  0.70899037  0.13736171  0.24233579     0.36000
C1732       C  0.71527259  0.30871831  0.14519828     0.36000
N1733       N  0.70650421  0.10375019  0.26274871    -0.38800
N1734       N  0.71629319  0.34371737  0.12581447    -0.38800
N1735       N  0.67199324  0.11093587  0.17602827    -0.38200
N1736       N  0.74687639  0.33735370  0.21481607    -0.38200
C1737       C  0.52236379  0.25205174  0.34774548    -0.04900
C1738       C  0.53937600  0.28857018  0.35328006    -0.02000
C1739       C  0.55183678  0.28566475  0.38418751     0.03000
C1740       C  0.54771058  0.24601328  0.41005450    -0.04900
C1741       C  0.53092130  0.20934779  0.40454860    -0.02000
C1742       C  0.51882887  0.21180312  0.37339329     0.03000
C1743       C  0.04399256  0.33348351  0.33009929     0.37600
C1744       C  0.52568838  0.16933616  0.43123751     0.37600
C1745       C  0.50455298  0.17108472  0.36724482     0.36000
C1746       C  0.56979838  0.32296259  0.38879679     0.36000
N1747       N  0.49372152  0.13765083  0.36296125    -0.38800
N1748       N  0.58406035  0.35293656  0.39219551    -0.38800
N1749       N  0.52138872  0.13766081  0.45265097    -0.38200
N1750       N  0.04810669  0.36658443  0.30975800    -0.38200
C1751       C  0.53757496  0.25804460  0.22691618    -0.04900
C1752       C  0.54010698  0.29855873  0.20119108    -0.02000
C1753       C  0.55866254  0.29877449  0.17467341     0.03000
C1754       C  0.57560034  0.25916195  0.17408468    -0.04900
C1755       C  0.57478068  0.22052362  0.20121622    -0.02000
C1756       C  0.55586703  0.21978380  0.22725082     0.03000
C1757       C  0.52473782  0.34111222  0.20270044     0.37600
C1758       C  0.59385176  0.18156056  0.20256652     0.37600
C1759       C  0.55528977  0.17924800  0.25442739     0.36000
C1760       C  0.55978699  0.33925336  0.14745794     0.36000
N1761       N  0.55493967  0.14696300  0.27616803    -0.38800
N1762       N  0.56086747  0.37140839  0.12565766    -0.38800
N1763       N  0.60921541  0.15070694  0.20376218    -0.38200
N1764       N  0.51311577  0.37585566  0.20369100    -0.38200
N1765       N  0.75172843  0.56551854  0.00802842    -0.36200
N1766       N  0.79289194  0.49984907  0.99438373    -0.56700
N1767       N  0.75089539  0.42747890  0.50599351    -0.36200
N1768       N  0.70959745  0.49371146  0.51624046    -0.56700
C1769       C  0.77273360  0.59414901  0.99782133     0.27400
C1770       C  0.72921374  0.59281218  0.00366152     0.27400
C1771       C  0.77211525  0.40265877  0.49702420     0.27400
C1772       C  0.72961964  0.39773006  0.51255096     0.27400
C1773       C  0.80905190  0.53445849  0.00048254     0.36000
C1774       C  0.80854305  0.46068931  0.99648708     0.36000
C1775       C  0.69382868  0.53083781  0.51950069     0.36000
C1776       C  0.69454010  0.45466379  0.52547243     0.36000
C1777       C  0.76365512  0.64011102  0.98671632    -0.21500
C1778       C  0.73610743  0.63926910  0.99023769    -0.21500
C1779       C  0.76404439  0.35673181  0.49736036    -0.21500
C1780       C  0.73773599  0.35335632  0.50780545    -0.21500
C1781       C  0.83531571  0.51785480  0.00519260    -0.22500
C1782       C  0.83505708  0.47115848  0.00238406    -0.22500
C1783       C  0.66830683  0.51556434  0.53044206    -0.22500
C1784       C  0.66872881  0.46722041  0.53409141    -0.22500
C1785       C  0.79999531  0.58064860  0.00182568    -0.17900
C1786       C  0.70308524  0.57820156  0.01483877    -0.17900
C1787       C  0.70324168  0.40852884  0.52358458    -0.17900
C1788       C  0.79953942  0.41695119  0.49421142    -0.17900
H1789       H  0.77572361  0.67107131  0.97763473     0.15000
H1790       H  0.72275809  0.66970920  0.98446797     0.15000
H1791       H  0.77628095  0.32763003  0.49243296     0.15000
H1792       H  0.72643665  0.32096374  0.51270935     0.15000
H1793       H  0.85270343  0.53697444  0.01071291     0.13300
H1794       H  0.85223310  0.44714752  0.00570576     0.13300
H1795       H  0.65107291  0.53701307  0.53482637     0.13300
H1796       H  0.65176778  0.44431542  0.54147486     0.13300
H1797       H  0.75330710  0.53154026  0.02214280     0.26600
H1798       H  0.75191978  0.46119902  0.51048806     0.26600
N1799       N  0.99775218  0.05164555  0.56541508    -0.36200
N1800       N  0.95536105  0.97881277  0.57781430    -0.56700
N1801       N  0.99648804  0.91415692  0.56150983    -0.36200
N1802       N  0.53760304  0.98504699  0.55067327    -0.56700
C1803       C  0.97681238  0.07727185  0.57427832     0.27400
C1804       C  0.51801407  0.08108221  0.55632359     0.27400
C1805       C  0.97562273  0.88541762  0.57215077     0.27400
C1806       C  0.51867620  0.88602625  0.56394407     0.27400
C1807       C  0.93973764  0.01790857  0.57637449     0.36000
C1808       C  0.93922664  0.94464419  0.57096827     0.36000
C1809       C  0.55325440  0.02355193  0.54420572     0.36000
C1810       C  0.55329080  0.94810553  0.54679814     0.36000
C1811       C  0.98515641  0.12333953  0.57299099    -0.21500
C1812       C  0.50943357  0.12704319  0.55622786    -0.21500
C1813       C  0.98480370  0.83938436  0.58272366    -0.21500
C1814       C  0.51177547  0.83926539  0.57614850    -0.21500
C1815       C  0.91324356  0.00773540  0.57013354    -0.22500
C1816       C  0.91298320  0.96140927  0.56645287    -0.22500
C1817       C  0.57924094  0.01098587  0.53619695    -0.22500
C1818       C  0.57920602  0.96307001  0.53759854    -0.22500
C1819       C  0.94926123  0.06369411  0.57742226    -0.17900
C1820       C  0.54462055  0.06932383  0.54689275    -0.17900
C1821       C  0.54491832  0.90081691  0.55353000    -0.17900
C1822       C  0.94832564  0.89881915  0.56856273    -0.17900
H1823       H  0.97307864  0.15306253  0.57739161     0.15000
H1824       H  0.52070090  0.15928118  0.54868125     0.15000
H1825       H  0.97282801  0.80835775  0.59191118     0.15000
H1826       H  0.52509095  0.80863853  0.58083997     0.15000
H1827       H  0.89609672  0.03180213  0.56698520     0.13300
H1828       H  0.89561859  0.94276247  0.56032869     0.13300
H1829       H  0.59657831  0.03357053  0.53062761     0.13300
H1830       H  0.59644174  0.94159092  0.53328442     0.13300
H1831       H  0.99679753  0.01697273  0.56284015     0.26600
H1832       H  0.99467212  0.94838231  0.54775206     0.26600
Zr1833     Zr  0.61211080  0.18213372  0.99323993     2.17500
O1834       O  0.62221512  0.11056005  0.97237312    -0.50900
O1835       O  0.57755418  0.20797789  0.95134348    -0.74100
O1836       O  0.57793299  0.11997876  0.51569987    -0.80900
O1837       O  0.66536671  0.25941867  0.94148851    -0.82600
O1838       O  0.56754614  0.12554622  0.56865407    -0.78300
O1839       O  0.64298915  0.19036433  0.94490114    -0.89900
O1840       O  0.55876764  0.27703296  0.95962955    -0.75900
O1841       O  0.57846351  0.21269159  0.52531845    -0.85300
O1842       O  0.61173642  0.26622997  0.97666366    -0.85000
O1843       O  0.62426527  0.15469189  0.55093302    -0.71800
O1844       O  0.65614853  0.20281820  0.50689358    -0.83900
Zr1845     Zr  0.63590739  0.29665260  0.57722857     2.26400
Zr1846     Zr  0.59153446  0.19014783  0.58198227     2.06300
Zr1847     Zr  0.65476288  0.29154647  0.98970031     2.10000
Zr1848     Zr  0.57944673  0.29595630  0.50676202     1.78800
O1849       O  0.70234983  0.28753867  0.46767959    -0.92700
O1850       O  0.53181358  0.28184217  0.52026403    -0.40500
O1851       O  0.62327720  0.32145112  0.51995677    -0.77200
O1852       O  0.59129697  0.27407730  0.56395113    -0.95900
O1853       O  0.63507987  0.21289711  0.59543882    -0.89200
O1854       O  0.66930537  0.26341948  0.54598524    -0.92000
C1855       C  0.56149679  0.24379963  0.94323691     1.01700
C1856       C  0.65975454  0.22218607  0.93068865     1.14700
C1857       C  0.56496937  0.10712596  0.54327117     1.05500
O1858       O  0.54525855  0.18506263  0.60277122    -0.94200
O1859       O  0.58186113  0.22426348  0.62968884    -0.89900
O1860       O  0.60676327  0.29048800  0.62719258    -0.83100
C1861       C  0.58902026  0.26022792  0.64111837     1.12100
O1862       O  0.69153360  0.11486135  0.54606840    -0.96100
Zr1863     Zr  0.66805046  0.18010057  0.56407720     1.88900
O1864       O  0.66884926  0.26979192  0.62097684    -0.72800
O1865       O  0.60612536  0.12594216  0.62623317    -0.52000
O1866       O  0.66516573  0.10462581  0.60282722    -0.96700
O1867       O  0.71576340  0.19279350  0.55055364    -0.53900
O1868       O  0.68542689  0.19799070  0.61523762    -0.73300
C1869       C  0.68340232  0.23234390  0.63074753     0.99000
O1870       O  0.62305640  0.37110776  0.59270165    -0.62100
O1871       O  0.63633366  0.35800527  0.94997802    -0.56900
O1872       O  0.66994443  0.35752459  0.55540230    -0.93600
O1873       O  0.67991958  0.35211629  0.50233325    -0.92000
O1874       O  0.58043855  0.37089190  0.97198030    -0.92400
O1875       O  0.55884298  0.36372692  0.52486227    -0.91200
C1876       C  0.68278986  0.37053093  0.52766461     1.17900
H1877       H  0.60912426  0.27703429  0.95324148     0.33800
H1878       H  0.57782226  0.28822696  0.57611994     0.44700
H1879       H  0.68707680  0.27449813  0.54953767     0.38200
H1880       H  0.62343448  0.12063574  0.55692269     0.34700
H1881       H  0.52284645  0.26870645  0.00617346     0.26500
H1882       H  0.58958613  0.11694950  0.63956866     0.32400
H1883       H  0.68316931  0.09982017  0.61313786     0.38300
H1884       H  0.56217042  0.37606695  0.96244038     0.32800
H1885       H  0.63899884  0.38593367  0.96003556     0.31700
H1886       H  0.70971988  0.27620378  0.97259691     0.33300
H1887       H  0.72198440  0.21471438  0.56440334     0.32300
H1888       H  0.57126404  0.37094236  0.54168869     0.36300
H1889       H  0.63990337  0.38434473  0.59942291     0.29000
H1890       H  0.60481067  0.10054489  0.96470989     0.33300
H1891       H  0.68493509  0.11583584  0.52343809     0.36100
H1892       H  0.64920071  0.36229827  0.93112156     0.28700
H1893       H  0.61794518  0.39230342  0.57169726     0.41600
H1894       H  0.53617556  0.21388297  0.59041271     0.31700
H1895       H  0.52967188  0.28604030  0.54334798     0.39300
H1896       H  0.71608466  0.21167299  0.52772093     0.31100
H1897       H  0.60985326  0.09885258  0.61543658     0.31200
H1898       H  0.63102690  0.08590173  0.49591459     0.31500
Zr1899     Zr  0.88455754  0.18337386  0.59564340     2.17500
O1900       O  0.87555365  0.11421593  0.63894038    -0.50900
O1901       O  0.91757048  0.21108316  0.63088372    -0.74100
O1902       O  0.91578780  0.11676152  0.59282143    -0.80900
O1903       O  0.82662557  0.25636564  0.62297841    -0.82600
O1904       O  0.93041234  0.12453039  0.53950879    -0.78300
O1905       O  0.85173677  0.18957003  0.64026293    -0.89900
O1906       O  0.93421160  0.28177116  0.60459613    -0.75900
O1907       O  0.91887120  0.21566011  0.55681925    -0.85300
O1908       O  0.88106939  0.26726662  0.58830351    -0.85000
O1909       O  0.87559146  0.15607292  0.54531370    -0.71800
O1910       O  0.84029378  0.20383955  0.57367763    -0.83900
Zr1911     Zr  0.86413032  0.29600968  0.97741123     2.26400
Zr1912     Zr  0.90920197  0.19148329  0.50604557     2.06300
Zr1913     Zr  0.83772456  0.28786179  0.56556812     2.10000
Zr1914     Zr  0.91527944  0.29918450  0.54968946     1.78800
O1915       O  0.78877504  0.28396319  0.57071049    -0.92700
O1916       O  0.96339680  0.28542774  0.54217380    -0.40500
O1917       O  0.87174931  0.32181128  0.52665467    -0.77200
O1918       O  0.90684993  0.27559590  0.49846029    -0.95900
O1919       O  0.86717921  0.21229279  0.98397050    -0.89200
O1920       O  0.82837082  0.26226315  0.51537111    -0.92000
C1921       C  0.93232499  0.24772763  0.62975333     1.01700
C1922       C  0.83351504  0.22012624  0.64484966     1.14700
C1923       C  0.92999066  0.10367874  0.56979313     1.05500
O1924       O  0.95751565  0.19770672  0.49484057    -0.94200
O1925       O  0.92115121  0.22158557  0.94911128    -0.89900
O1926       O  0.89573082  0.28797542  0.93168266    -0.83100
C1927       C  0.91398751  0.25739374  0.92704833     1.12100
O1928       O  0.81159874  0.11432813  0.56242964    -0.96100
Zr1929     Zr  0.83205876  0.17861927  0.52285470     1.88900
O1930       O  0.83184492  0.26894503  0.94100766    -0.72800
O1931       O  0.90458387  0.12634078  0.97851198    -0.52000
O1932       O  0.84110011  0.10378463  0.00575234    -0.96700
O1933       O  0.78304709  0.18360011  0.52754051    -0.53900
O1934       O  0.81662926  0.19648458  0.96605732    -0.73300
C1935       C  0.81795555  0.23145713  0.94138776     0.99000
O1936       O  0.87555758  0.36850706  0.93839979    -0.62100
O1937       O  0.84080748  0.35482769  0.59306045    -0.56900
O1938       O  0.83179705  0.36110468  0.97973639    -0.93600
O1939       O  0.82079754  0.35971750  0.53278778    -0.92000
O1940       O  0.90803275  0.37302605  0.56864945    -0.92400
O1941       O  0.93765387  0.36620321  0.51503944    -0.91200
C1942       C  0.81838495  0.37496698  0.00307953     1.17900
H1943       H  0.88239462  0.27779837  0.60895354     0.33800
H1944       H  0.92207253  0.29016498  0.98457344     0.44700
H1945       H  0.81066235  0.27279366  0.50737917     0.38200
H1946       H  0.87703593  0.12200666  0.54927828     0.34700
H1947       H  0.96761206  0.25512722  0.55739016     0.26500
H1948       H  0.92308756  0.11773235  0.97236241     0.32400
H1949       H  0.82352926  0.09577598  0.99734338     0.38300
H1950       H  0.89227017  0.38829418  0.55616989     0.32800
H1951       H  0.82658007  0.34978397  0.61039830     0.31700
H1952       H  0.78331210  0.31314801  0.57834115     0.33300
H1953       H  0.77728048  0.20934722  0.50922708     0.32300
H1954       H  0.92336022  0.38225266  0.50020385     0.36300
H1955       H  0.85950688  0.37660006  0.92428360     0.29000
H1956       H  0.89320876  0.10358395  0.64889045     0.33300
H1957       H  0.82148350  0.11335419  0.58321941     0.36100
H1958       H  0.85796527  0.35023200  0.60529450     0.28700
H1959       H  0.87636237  0.39346219  0.95164434     0.41600
H1960       H  0.96246504  0.16901637  0.48629518     0.31700
H1961       H  0.96509736  0.27807160  0.51985484     0.39300
H1962       H  0.77970762  0.19650054  0.54769965     0.31100
H1963       H  0.89876518  0.09929221  0.99580714     0.31200
H1964       H  0.87015871  0.08919466  0.62718422     0.31500
Zr1965     Zr  0.87626823  0.78947158  0.58217151     2.17500
O1966       O  0.86223652  0.86473106  0.59549951    -0.50900
O1967       O  0.90279793  0.75949327  0.63163775    -0.74100
O1968       O  0.84037239  0.77738039  0.62310335    -0.80900
O1969       O  0.93668897  0.84396300  0.53597930    -0.82600
O1970       O  0.81234074  0.72147091  0.61132320    -0.78300
O1971       O  0.90893748  0.85181933  0.57887795    -0.89900
O1972       O  0.92192154  0.68938222  0.62692628    -0.75900
O1973       O  0.86771815  0.70680585  0.59366229    -0.85300
O1974       O  0.91540290  0.75288764  0.56407471    -0.85000
O1975       O  0.83651747  0.78062858  0.55121673    -0.71800
O1976       O  0.88056806  0.82308697  0.52424932    -0.83900
Zr1977     Zr  0.87184490  0.69100637  0.98555004     2.26400
Zr1978     Zr  0.82894169  0.69711902  0.56185574     2.06300
Zr1979     Zr  0.91965724  0.78518515  0.50660081     2.10000
Zr1980     Zr  0.90677512  0.67056430  0.57521670     1.78800
O1981       O  0.92547073  0.85831259  0.96556394    -0.92700
O1982       O  0.88877510  0.60337226  0.61439408    -0.40500
O1983       O  0.91220494  0.70166156  0.51712959    -0.77200
O1984       O  0.86783208  0.65846606  0.54443943    -0.95900
O1985       O  0.83315526  0.72853664  0.50415314    -0.89200
O1986       O  0.87997848  0.77384019  0.97405389    -0.92000
C1987       C  0.91819866  0.72352546  0.64229533     1.01700
C1988       C  0.92976759  0.86310502  0.56046957     1.14700
C1989       C  0.81966118  0.75083675  0.62894982     1.05500
O1990       O  0.82019578  0.62490084  0.60218934    -0.94200
O1991       O  0.81111464  0.63842624  0.53309728    -0.89900
O1992       O  0.83876628  0.62889776  0.98982863    -0.83100
C1993       C  0.81795943  0.61906788  0.50869402     1.12100
O1994       O  0.82656302  0.88744373  0.50284676    -0.96100
Zr1995     Zr  0.84178498  0.81083249  0.49291019     1.88900
O1996       O  0.84498496  0.72038230  0.93625186    -0.72800
O1997       O  0.78110270  0.71668503  0.55533997    -0.52000
O1998       O  0.79313722  0.82381009  0.49182906    -0.96700
O1999       O  0.85677033  0.87268443  0.94856157    -0.53900
O2000       O  0.82345025  0.78761742  0.94270521    -0.73300
C2001       C  0.82817479  0.75457695  0.92654612     0.99000
O2002       O  0.88363488  0.61584491  0.97044232    -0.62100
O2003       O  0.96770656  0.76727863  0.51309582    -0.56900
O2004       O  0.90857958  0.70235071  0.94576777    -0.93600
O2005       O  0.93602738  0.76008059  0.95604577    -0.92000
O2006       O  0.95533553  0.65853010  0.58063261    -0.92400
O2007       O  0.92418246  0.59908338  0.55899979    -0.91200
C2008       C  0.92895266  0.72960220  0.93922973     1.17900
H2009       H  0.93131513  0.75947574  0.57548962     0.33800
H2010       H  0.86469492  0.62491945  0.54759202     0.44700
H2011       H  0.88287530  0.78578261  0.95071881     0.38200
H2012       H  0.82143850  0.79668334  0.55936157     0.34700
H2013       H  0.90489230  0.58554034  0.62417077     0.26500
H2014       H  0.77784535  0.72028330  0.53137957     0.32400
H2015       H  0.78476446  0.78920527  0.99164903     0.38300
H2016       H  0.96263368  0.66916512  0.55798108     0.32800
H2017       H  0.97599763  0.79288860  0.99511444     0.31700
H2018       H  0.94512722  0.86388858  0.96545429     0.33300
H2019       H  0.87078987  0.88876258  0.95891448     0.32300
H2020       H  0.90843005  0.58487768  0.55042015     0.36300
H2021       H  0.88737124  0.62293678  0.94637385     0.29000
H2022       H  0.85949928  0.85882932  0.61974665     0.33300
H2023       H  0.83670300  0.89173017  0.52247351     0.36100
H2024       H  0.97068148  0.76037450  0.53723143     0.28700
H2025       H  0.90510805  0.61176987  0.48080795     0.41600
H2026       H  0.83368498  0.60166651  0.59716469     0.31700
H2027       H  0.88081692  0.61712848  0.63249258     0.39300
H2028       H  0.84164601  0.89580932  0.94448557     0.31100
H2029       H  0.77180108  0.68711686  0.56552489     0.31200
H2030       H  0.84401019  0.87077266  0.58602255     0.31500
Zr2031     Zr  0.63132730  0.68962873  0.98787295     2.17500
O2032       O  0.62085173  0.61351851  0.97458278    -0.50900
O2033       O  0.65988734  0.71837094  0.94091915    -0.74100
O2034       O  0.59872658  0.70159558  0.94269290    -0.80900
O2035       O  0.68513518  0.63026923  0.54360986    -0.82600
O2036       O  0.57226187  0.76478699  0.94772608    -0.78300
O2037       O  0.66594936  0.62840448  0.99734026    -0.89900
O2038       O  0.67945623  0.78625402  0.94778700    -0.75900
O2039       O  0.62553013  0.77320614  0.97449673    -0.85300
O2040       O  0.66748454  0.72263466  0.51157730    -0.85000
O2041       O  0.58802524  0.70560827  0.50782058    -0.71800
O2042       O  0.62748447  0.65690794  0.54246274    -0.83900
Zr2043     Zr  0.61610078  0.78770181  0.58036389     2.26400
Zr2044     Zr  0.58383213  0.78994283  0.49659656     2.06300
Zr2045     Zr  0.66336130  0.68888561  0.56917134     2.10000
Zr2046     Zr  0.66242697  0.80599334  0.50001014     1.78800
O2047       O  0.65877382  0.61556218  0.60981146    -0.92700
O2048       O  0.65072003  0.87866186  0.96029443    -0.40500
O2049       O  0.65941837  0.77307294  0.55797356    -0.77200
O2050       O  0.61971517  0.82287634  0.52276257    -0.95900
O2051       O  0.57969866  0.75724132  0.55427637    -0.89200
O2052       O  0.62094144  0.70389060  0.59265024    -0.92000
C2053       C  0.67586415  0.75305837  0.93179304     1.01700
C2054       C  0.68244777  0.61476685  0.51695509     1.14700
C2055       C  0.57973892  0.73184476  0.93267353     1.05500
O2056       O  0.57749742  0.85986887  0.95899964    -0.94200
O2057       O  0.56247489  0.85025296  0.52095088    -0.89900
O2058       O  0.58067706  0.84768332  0.57162620    -0.83100
C2059       C  0.56422458  0.86413982  0.54833492     1.12100
O2060       O  0.56609652  0.60557260  0.54801499    -0.96100
Zr2061     Zr  0.58491833  0.67368384  0.56587503     1.88900
O2062       O  0.58628267  0.75684331  0.62585052    -0.72800
O2063       O  0.53527846  0.77907643  0.49486932    -0.52000
O2064       O  0.53609151  0.67510004  0.55972289    -0.96700
O2065       O  0.59696015  0.60001657  0.60334620    -0.53900
O2066       O  0.56552556  0.69143459  0.61639315    -0.73300
C2067       C  0.56947929  0.72303888  0.63361080     0.99000
O2068       O  0.62921713  0.85966399  0.59804845    -0.62100
O2069       O  0.71233243  0.68758495  0.57367997    -0.56900
O2070       O  0.64804936  0.77671392  0.62574944    -0.93600
O2071       O  0.67571494  0.71554929  0.61946556    -0.92000
O2072       O  0.71106568  0.80878236  0.50681830    -0.92400
O2073       O  0.67963349  0.87481021  0.51842816    -0.91200
C2074       C  0.66777188  0.74782028  0.63496991     1.17900
H2075       H  0.68471392  0.71414535  0.50314188     0.33800
H2076       H  0.61737825  0.85677115  0.51963753     0.44700
H2077       H  0.62089797  0.69130953  0.61614927     0.38200
H2078       H  0.57393091  0.69185671  0.49704245     0.34700
H2079       H  0.66784384  0.88854151  0.94851115     0.26500
H2080       H  0.53042960  0.76602170  0.02608144     0.32400
H2081       H  0.52915348  0.65402326  0.57994594     0.38300
H2082       H  0.71791655  0.82127521  0.98246928     0.32800
H2083       H  0.71716424  0.72024542  0.57512566     0.31700
H2084       H  0.67639586  0.61101092  0.62105178     0.33300
H2085       H  0.57957814  0.58455955  0.61040080     0.32300
H2086       H  0.66624556  0.88126217  0.53499997     0.36300
H2087       H  0.62690511  0.88549824  0.57848117     0.29000
H2088       H  0.62079662  0.61874270  0.95016788     0.33300
H2089       H  0.58057456  0.59480194  0.53442446     0.36100
H2090       H  0.71617246  0.66836565  0.59584895     0.28700
H2091       H  0.61508038  0.86551089  0.61394905     0.41600
H2092       H  0.55798104  0.86142276  0.95405016     0.31700
H2093       H  0.63924562  0.86855984  0.94363208     0.39300
H2094       H  0.60376921  0.60970841  0.62333785     0.31100
H2095       H  0.52811969  0.80964621  0.48248982     0.31200
H2096       H  0.60178731  0.60812809  0.98146785     0.31500
C2097       C  0.51828205  0.26110015  0.75499570     0.02700
C2098       C  0.98848436  0.26410087  0.75018632     0.02700
C2099       C  0.97155614  0.26499887  0.77775159    -0.17800
C2100       C  0.98195125  0.26572161  0.80914699     0.02700
C2101       C  0.51068344  0.25736510  0.81465680     0.02700
C2102       C  0.52805678  0.25873596  0.78717947    -0.17800
H2103       H  0.54966190  0.25799132  0.79095155     0.04700
H2104       H  0.94988014  0.26444193  0.77478493     0.04700
C2105       C  0.98410797  0.71723916  0.75996435     0.02700
C2106       C  0.51365656  0.71657162  0.75820012     0.02700
C2107       C  0.52899784  0.71764153  0.78630572    -0.17800
C2108       C  0.51649731  0.72107014  0.81626154     0.02700
C2109       C  0.98599137  0.71807425  0.81873435     0.02700
C2110       C  0.97112375  0.71756593  0.79017613    -0.17800
H2111       H  0.94926501  0.71836984  0.79137319     0.04700
H2112       H  0.55083627  0.71689264  0.78461462     0.04700
C2113       C  0.76025725  0.76000199  0.74849200     0.02700
C2114       C  0.73176103  0.75855402  0.75092467     0.02700
C2115       C  0.71962062  0.75777698  0.78171258    -0.17800
C2116       C  0.73520346  0.75770119  0.80981555     0.02700
C2117       C  0.76368580  0.75860424  0.80751631     0.02700
C2118       C  0.77585432  0.76012765  0.77660995    -0.17800
H2119       H  0.79767226  0.76058109  0.77447794     0.04700
H2120       H  0.69781046  0.75672258  0.78394861     0.04700
C2121       C  0.73701482  0.21604349  0.75848588     0.02700
C2122       C  0.76549747  0.21566169  0.76210171     0.02700
C2123       C  0.77616028  0.21671780  0.79339566    -0.17800
C2124       C  0.75956350  0.21765604  0.82128768     0.02700
C2125       C  0.73107835  0.21582566  0.81797386     0.02700
C2126       C  0.72042185  0.21516440  0.78658044    -0.17800
H2127       H  0.69871852  0.21488520  0.78382624     0.04700
H2128       H  0.79786846  0.21711616  0.79607378     0.04700
C2129       C  0.68252277  0.75153018  0.66573159    -0.04900
C2130       C  0.68671457  0.71085138  0.69081054    -0.02000
C2131       C  0.70229668  0.71336678  0.71882856     0.03000
C2132       C  0.71416595  0.75641541  0.72199358    -0.04900
C2133       C  0.70768142  0.79788150  0.69874516    -0.02000
C2134       C  0.69245415  0.79542375  0.67043057     0.03000
C2135       C  0.67381370  0.66681102  0.68865659     0.35600
C2136       C  0.71476357  0.84360226  0.70527436     0.37600
C2137       C  0.68745773  0.83826735  0.64604825     0.36000
C2138       C  0.70485442  0.67219515  0.74531570     0.36000
N2139       N  0.68369240  0.87287927  0.62690813    -0.38800
N2140       N  0.70640684  0.63955798  0.76670047    -0.38800
N2141       N  0.71959016  0.88039483  0.71063543    -0.38200
N2142       N  0.66331605  0.63180314  0.68711025    -0.38200
C2143       C  0.72078592  0.75661180  0.84140961    -0.04900
C2144       C  0.70965592  0.79867627  0.84845729    -0.02000
C2145       C  0.69472070  0.79756352  0.87778060     0.03000
C2146       C  0.69130796  0.75434057  0.90060378    -0.04900
C2147       C  0.70171382  0.71186666  0.89265870    -0.02000
C2148       C  0.71567847  0.71303482  0.86269213     0.03000
C2149       C  0.71206251  0.84267045  0.82442471     0.37600
C2150       C  0.69785502  0.66648371  0.91475175     0.37600
C2151       C  0.72285197  0.66907451  0.85260162     0.36000
C2152       C  0.68113077  0.84038152  0.88286529     0.36000
N2153       N  0.72777860  0.63368498  0.84461190    -0.38800
N2154       N  0.67013119  0.87479658  0.88610326    -0.38800
N2155       N  0.69468466  0.62987517  0.93176500    -0.38200
N2156       N  0.71362543  0.87764226  0.80510073    -0.38200
C2157       C  0.55402207  0.72069469  0.66498281    -0.04900
C2158       C  0.54911355  0.67666435  0.68650870    -0.02000
C2159       C  0.53669319  0.67539404  0.71752585     0.03000
C2160       C  0.52803118  0.71765269  0.72658041    -0.04900
C2161       C  0.53389531  0.76145323  0.70610501    -0.02000
C2162       C  0.54607080  0.76315428  0.67504579     0.03000
C2163       C  0.55751817  0.63245425  0.67771807     0.37600
C2164       C  0.02997913  0.80542877  0.71959553     0.37600
C2165       C  0.55003672  0.80908142  0.65366634     0.36000
C2166       C  0.53481653  0.63103571  0.74126501     0.36000
N2167       N  0.55313607  0.84611596  0.63720590    -0.38800
N2168       N  0.53395991  0.59582446  0.76044565    -0.38800
N2169       N  0.02752761  0.84016577  0.72929880    -0.38200
N2170       N  0.56380224  0.59658166  0.67131698    -0.38200
C2171       C  0.56502272  0.72852561  0.90181457    -0.04900
C2172       C  0.56048059  0.76944231  0.87698283    -0.02000
C2173       C  0.54448636  0.76711502  0.84925365     0.03000
C2174       C  0.53375779  0.72358271  0.84530765    -0.04900
C2175       C  0.54069311  0.68208229  0.86820139    -0.02000
C2176       C  0.55491381  0.68476682  0.89714664     0.03000
C2177       C  0.57317919  0.81363729  0.87918460     0.37600
C2178       C  0.03402176  0.63301694  0.86194482     0.37600
C2179       C  0.55771020  0.64262716  0.92274963     0.36000
C2180       C  0.54006200  0.80921083  0.82400557     0.36000
N2181       N  0.55923792  0.60869768  0.94306292    -0.38800
N2182       N  0.53682547  0.84283539  0.80378335    -0.38800
N2183       N  0.03033219  0.59625178  0.85583211    -0.38200
N2184       N  0.58352382  0.84880233  0.88068313    -0.38200
C2185       C  0.81289484  0.75567833  0.89482178    -0.04900
C2186       C  0.80689057  0.71323402  0.88387988    -0.02000
C2187       C  0.79209770  0.71468212  0.85457526     0.03000
C2188       C  0.78118914  0.75769982  0.83703228    -0.04900
C2189       C  0.78824360  0.80009418  0.84652628    -0.02000
C2190       C  0.80415574  0.79929435  0.87487620     0.03000
C2191       C  0.81529515  0.66744814  0.90272441     0.37600
C2192       C  0.78061809  0.84493375  0.82572774     0.37600
C2193       C  0.81254160  0.84396862  0.88211603     0.36000
C2194       C  0.78948874  0.67213231  0.84131409     0.36000
N2195       N  0.81913596  0.88008494  0.88719192    -0.38800
N2196       N  0.78805535  0.63838160  0.83037811    -0.38800
N2197       N  0.77504120  0.88081414  0.80891908    -0.38200
N2198       N  0.82185685  0.63061997  0.91740700    -0.38200
C2199       C  0.80347288  0.75335664  0.65881743    -0.04900
C2200       C  0.79538231  0.79758864  0.66562055    -0.02000
C2201       C  0.78290962  0.79983001  0.69600083     0.03000
C2202       C  0.77462038  0.75792401  0.71729392    -0.04900
C2203       C  0.78188411  0.71366226  0.71016219    -0.02000
C2204       C  0.79738543  0.71142809  0.68177160     0.03000
C2205       C  0.79844887  0.84066202  0.64092273     0.37600
C2206       C  0.77464586  0.67045304  0.73296123     0.37600
C2207       C  0.80853348  0.66629592  0.67742546     0.36000
C2208       C  0.78058284  0.84484617  0.70634094     0.36000
N2209       N  0.81778664  0.63037634  0.67436766    -0.38800
N2210       N  0.77961714  0.88070222  0.71478896    -0.38800
N2211       N  0.76896517  0.63588597  0.75109830    -0.38200
N2212       N  0.79991947  0.87534090  0.62130408    -0.38200
C2213       C  0.97113970  0.72108147  0.84943141    -0.04900
C2214       C  0.96448929  0.67947572  0.87212065    -0.02000
C2215       C  0.95280791  0.68243174  0.90278132     0.03000
C2216       C  0.94467635  0.72685318  0.90915229    -0.04900
C2217       C  0.94929843  0.76836829  0.88511956    -0.02000
C2218       C  0.96296473  0.76551247  0.85555482     0.03000
C2219       C  0.96748214  0.63383299  0.86283476     0.37600
C2220       C  0.93868842  0.81372582  0.88982580     0.37600
C2221       C  0.96702796  0.80803077  0.83059114     0.36000
C2222       C  0.95014355  0.63987673  0.92807972     0.36000
N2223       N  0.96977475  0.84224184  0.81079976    -0.38800
N2224       N  0.94863062  0.60582110  0.94827348    -0.38800
N2225       N  0.93006294  0.84992213  0.89323532    -0.38200
N2226       N  0.96895453  0.59745439  0.85518743    -0.38200
C2227       C  0.93362174  0.72199775  0.67378179    -0.04900
C2228       C  0.94238328  0.76429731  0.68283783    -0.02000
C2229       C  0.95803555  0.76244535  0.71143895     0.03000
C2230       C  0.96715576  0.71874248  0.73000504    -0.04900
C2231       C  0.95804712  0.67658859  0.72176744    -0.02000
C2232       C  0.94071327  0.67813217  0.69458763     0.03000
C2233       C  0.93592878  0.81028856  0.66277117     0.37600
C2234       C  0.96576923  0.63142144  0.74205372     0.37600
C2235       C  0.92895755  0.63444987  0.68957797     0.36000
C2236       C  0.96371314  0.80575312  0.72260379     0.36000
N2237       N  0.91943674  0.59937148  0.68627479    -0.38800
N2238       N  0.96758653  0.84048150  0.73160081    -0.38800
N2239       N  0.47173219  0.59591491  0.75995855    -0.38200
N2240       N  0.93097208  0.84736217  0.64720753    -0.38200
C2241       C  0.78473215  0.21456190  0.73360243    -0.04900
C2242       C  0.78632681  0.17474324  0.71842098    -0.02000
C2243       C  0.80305258  0.17525894  0.69018693     0.03000
C2244       C  0.81921263  0.21488093  0.67757297    -0.04900
C2245       C  0.81976415  0.25238822  0.69490559    -0.02000
C2246       C  0.80256330  0.25247452  0.72249483     0.03000
C2247       C  0.77202416  0.13209298  0.73303284     0.37600
C2248       C  0.83889061  0.29030215  0.68497605     0.37600
C2249       C  0.80335642  0.29180057  0.73944619     0.36000
C2250       C  0.80330709  0.13526089  0.67389157     0.36000
N2251       N  0.80407662  0.32306402  0.75307087    -0.38800
N2252       N  0.80354225  0.10318663  0.66101029    -0.38800
N2253       N  0.85443459  0.32013397  0.67735534    -0.38200
N2254       N  0.76113041  0.09759301  0.74499878    -0.38200
C2255       C  0.80247176  0.22778357  0.91111210    -0.04900
C2256       C  0.78582448  0.26557692  0.89527712    -0.02000
C2257       C  0.77159872  0.26226891  0.86631783     0.03000
C2258       C  0.77312359  0.22050502  0.85326719    -0.04900
C2259       C  0.79009036  0.18297063  0.86895521    -0.02000
C2260       C  0.80442759  0.18637835  0.89773671     0.03000
C2261       C  0.78297276  0.30781283  0.90911302     0.37600
C2262       C  0.79358558  0.14112167  0.85483706     0.37600
C2263       C  0.82208037  0.14767603  0.91279315     0.36000
C2264       C  0.75704301  0.30341102  0.84883291     0.36000
N2265       N  0.83611847  0.11673832  0.92474920    -0.38800
N2266       N  0.74602339  0.33720110  0.83520933    -0.38800
N2267       N  0.79654182  0.10789319  0.84344770    -0.38200
N2268       N  0.78078911  0.34135684  0.92030251    -0.38200
C2269       C  0.94752906  0.25208523  0.65998004    -0.04900
C2270       C  0.96219109  0.21316553  0.67803199    -0.02000
C2271       C  0.97598225  0.21729298  0.70703965     0.03000
C2272       C  0.97544789  0.26044178  0.71831595    -0.04900
C2273       C  0.95977447  0.29861104  0.70113007    -0.02000
C2274       C  0.94643944  0.29491475  0.67179597     0.03000
C2275       C  0.96298098  0.16851564  0.66696274     0.37600
C2276       C  0.95598247  0.34089681  0.71472283     0.37600
C2277       C  0.93040514  0.33474611  0.65488515     0.36000
C2278       C  0.98873339  0.17567704  0.72661846     0.36000
N2279       N  0.91770981  0.36678356  0.64164932    -0.38800
N2280       N  0.99820622  0.14148511  0.74193219    -0.38800
N2281       N  0.95254748  0.37423333  0.72587464    -0.38200
N2282       N  0.96341143  0.13282041  0.65827472    -0.38200
C2283       C  0.92842982  0.26274194  0.89434304    -0.04900
C2284       C  0.94332126  0.30379723  0.88113017    -0.02000
C2285       C  0.96015524  0.30531252  0.85288058     0.03000
C2286       C  0.96257778  0.26569557  0.83763785    -0.04900
C2287       C  0.94583771  0.22638126  0.84909868    -0.02000
C2288       C  0.92950328  0.22437119  0.87768851     0.03000
C2289       C  0.94217554  0.34400943  0.89721031     0.37600
C2290       C  0.94510381  0.18799193  0.83124681     0.37600
C2291       C  0.91368706  0.18246847  0.88992390     0.36000
C2292       C  0.97383183  0.34870225  0.83842277     0.36000
N2293       N  0.90122070  0.14884770  0.89959897    -0.38800
N2294       N  0.48753518  0.37696304  0.82897117    -0.38800
N2295       N  0.94431629  0.15770660  0.81672270    -0.38200
N2296       N  0.94139141  0.37631999  0.90984766    -0.38200
C2297       C  0.67470723  0.21656294  0.89996354    -0.04900
C2298       C  0.67492529  0.25430649  0.87215956    -0.02000
C2299       C  0.69322487  0.25397949  0.84563440     0.03000
C2300       C  0.71158816  0.21572560  0.84634399    -0.04900
C2301       C  0.70963605  0.17613004  0.87278742    -0.02000
C2302       C  0.69164435  0.17688002  0.89967200     0.03000
C2303       C  0.65572477  0.29314736  0.87050086     0.37600
C2304       C  0.72491558  0.13338288  0.87158339     0.37600
C2305       C  0.69102935  0.13718969  0.92744517     0.36000
C2306       C  0.69303828  0.29315587  0.81744153     0.36000
N2307       N  0.69041074  0.10552258  0.94961708    -0.38800
N2308       N  0.69295636  0.32416087  0.79479805    -0.38800
N2309       N  0.73646856  0.09850410  0.87081516    -0.38200
N2310       N  0.64022027  0.32383585  0.86909908    -0.38200
C2311       C  0.72381485  0.21972287  0.72539722    -0.04900
C2312       C  0.72562508  0.26180305  0.70109210    -0.02000
C2313       C  0.71318477  0.26553139  0.66998411     0.03000
C2314       C  0.69809019  0.22759967  0.66288559    -0.04900
C2315       C  0.69564653  0.18593517  0.68762995    -0.02000
C2316       C  0.70782936  0.18254269  0.71884200     0.03000
C2317       C  0.73825781  0.30298502  0.70905119     0.37600
C2318       C  0.67959798  0.14691631  0.68172412     0.37600
C2319       C  0.70267323  0.14156316  0.74479639     0.36000
C2320       C  0.71620877  0.30856156  0.64518530     0.36000
N2321       N  0.69808620  0.10919634  0.76556441    -0.38800
N2322       N  0.71870427  0.34300388  0.62552965    -0.38800
N2323       N  0.66691405  0.11546042  0.67736184    -0.38200
N2324       N  0.74772237  0.33645389  0.71530728    -0.38200
C2325       C  0.52292393  0.25408442  0.84819425    -0.04900
C2326       C  0.53863373  0.29158700  0.85473656    -0.02000
C2327       C  0.54966193  0.28942828  0.88637723     0.03000
C2328       C  0.54650576  0.24852486  0.91151181    -0.04900
C2329       C  0.53120928  0.21065514  0.90486665    -0.02000
C2330       C  0.51997497  0.21298794  0.87322993     0.03000
C2331       C  0.04334072  0.34080153  0.82707223     0.37600
C2332       C  0.52644970  0.16967125  0.93095268     0.37600
C2333       C  0.50763214  0.17130850  0.86567658     0.36000
C2334       C  0.56495208  0.32911976  0.89259388     0.36000
N2335       N  0.49846376  0.13729733  0.85989589    -0.38800
N2336       N  0.57692302  0.36113623  0.89736690    -0.38800
N2337       N  0.52247766  0.13730470  0.95195880    -0.38200
N2338       N  0.04655139  0.37442262  0.80686145    -0.38200
C2339       C  0.53847342  0.26344875  0.72699453    -0.04900
C2340       C  0.54021965  0.30409421  0.70133571    -0.02000
C2341       C  0.55770608  0.30456123  0.67377240     0.03000
C2342       C  0.57495777  0.26551800  0.67251726    -0.04900
C2343       C  0.57516731  0.22696380  0.69978302    -0.02000
C2344       C  0.55718066  0.22593341  0.72678089     0.03000
C2345       C  0.52528244  0.34659277  0.70418141     0.37600
C2346       C  0.59354876  0.18739089  0.69963993     0.37600
C2347       C  0.55795632  0.18581158  0.75427643     0.36000
C2348       C  0.55658800  0.34393354  0.64581374     0.36000
N2349       N  0.55879109  0.15391822  0.77628410    -0.38800
N2350       N  0.55537638  0.37519780  0.62340141    -0.38800
N2351       N  0.60809320  0.15573620  0.69941640    -0.38200
N2352       N  0.51405497  0.38117115  0.70659709    -0.38200
loop_ 
_geom_bond_atom_site_label_1 
_geom_bond_atom_site_label_2 
_geom_bond_distance 
_geom_bond_site_symmetry_2 
_ccdc_geom_bond_type 
N1            C6   1.351       .  A
N1            C5   1.351       .  A
N1           H33   1.038       .  S
N2            C9   1.355       .  A
N2           C10   1.350       .  A
N3            C8   1.360       .  A
N3            C7   1.355   1_554  A
N3           H34   1.032       .  S
N4           C11   1.347       .  A
N4           C12   1.350       .  A
C5           C13   1.384       .  A
C5           C21   1.407       .  A
C6           C22   1.414       .  A
C6           C14   1.390       .  A
C7           C15   1.387       .  A
C7           C24   1.421       .  A
C8           C23   1.430       .  A
C8           C16   1.386       .  A
C9           C21   1.412       .  A
C9           C17   1.383       .  A
C10          C18   1.390       .  A
C10         C612   1.419       .  A
C11          C19   1.385       .  A
C11         C610   1.409       .  A
C12          C20   1.386       .  A
C12          C23   1.412       .  A
C13          C14   1.372       .  A
C13          H25   1.083       .  S
C14          H26   1.081       .  S
C15          C16   1.367   1_556  A
C15          H27   1.080       .  S
C16          H28   1.078       .  S
C17          C18   1.375       .  A
C17          H29   1.082       .  S
C18          H30   1.083       .  S
C19          C20   1.373       .  A
C19          H31   1.082       .  S
C20          H32   1.078       .  S
C21         C817   1.483       .  S
C22         C599   1.407       .  A
C22         C878   1.461       .  S
C23         C112   1.494       .  S
C24         C598   1.414       .  A
C24         C766   1.471   1_556  S
N35          C39   1.354       .  A
N35        C1216   1.359       .  A
N35          H67   1.029       .  S
N36          C43   1.348   1_565  A
N36          C44   1.352       .  A
N37          C41   1.349       .  A
N37        C1218   1.352       .  A
N37          H68   1.039       .  S
N38          C45   1.350   1_565  A
N38          C46   1.348       .  A
C39          C47   1.389       .  A
C39          C55   1.423       .  A
C40        N1211   1.358   1_455  A
C40          C56   1.431       .  A
C40          C48   1.388       .  A
C41          C49   1.385       .  A
C41          C58   1.406       .  A
C42        N1213   1.350   1_455  A
C42          C57   1.413       .  A
C42          C50   1.391       .  A
C43          C55   1.416       .  A
C43          C51   1.391       .  A
C44          C58   1.408       .  A
C44          C52   1.383       .  A
C45          C53   1.387       .  A
C45          C56   1.415       .  A
C46          C54   1.385       .  A
C46          C57   1.411       .  A
C47        C1224   1.368       .  A
C47          H59   1.083       .  S
C48        C1223   1.366   1_455  A
C48          H60   1.078       .  S
C49        C1226   1.371       .  A
C49          H61   1.082       .  S
C50        C1225   1.373   1_455  A
C50          H62   1.083       .  S
C51          C52   1.374   1_545  A
C51          H63   1.082       .  S
C52          H64   1.082       .  S
C53          C54   1.375   1_545  A
C53          H65   1.079       .  S
C54          H66   1.082       .  S
C55         C159   1.466       .  S
C56          C93   1.492       .  S
C57         C295   1.465       .  S
C58         C224   1.475       .  S
Zr69         O70   2.436       .  S
Zr69         O71   2.446       .  S
Zr69         O75   2.476       .  S
Zr69        O660   2.466       .  S
Zr69         O78   2.385       .  S
Zr69        O665   2.386       .  S
Zr69        O667   2.422       .  S
Zr69        O668   2.405       .  S
O70         H126   0.990       .  S
O70         H722   0.990       .  S
O71          C91   1.287       .  A
O72        Zr657   2.478   1_554  S
O72          C93   1.293       .  A
O73         Zr83   2.416       .  S
O73          C92   1.282       .  A
O74         Zr82   2.391       .  S
O74          C93   1.278       .  A
O75          C92   1.293       .  A
O76        Zr672   2.436       .  S
O76          C91   1.285       .  A
O77         Zr82   2.400       .  S
O77         Zr84   2.373       .  S
O77        Zr657   2.391   1_554  S
O78         Zr83   2.369       .  S
O78        Zr672   2.379       .  S
O78         H113   0.965       .  S
O79         Zr82   2.398       .  S
O79         Zr99   2.400       .  S
O79        Zr657   2.420   1_554  S
O79         H116   0.966       .  S
O80         Zr99   2.399       .  S
O80        Zr657   2.408   1_554  S
O80        Zr671   2.386   1_554  S
Zr81        O106   2.437       .  S
Zr81        O100   2.453       .  S
Zr81        O108   2.481       .  S
Zr81         O96   2.481       .  S
Zr81         O87   2.423       .  S
Zr81         O88   2.415       .  S
Zr81         O89   2.383       .  S
Zr81         O90   2.392       .  S
Zr82        O101   2.434       .  S
Zr82         O94   2.435       .  S
Zr82         O95   2.425       .  S
Zr82         O88   2.388       .  S
Zr82         O89   2.373       .  S
Zr83        O107   2.436       .  S
Zr83        O673   2.433       .  S
Zr83        O697   2.390       .  S
Zr83        O668   2.378       .  S
Zr83        O675   2.395       .  S
Zr83        O678   2.392       .  S
Zr84        O111   2.436       .  S
Zr84         O86   2.440       .  S
Zr84        O698   2.434   1_554  S
Zr84        O664   2.440   1_554  S
Zr84         O87   2.412       .  S
Zr84         O88   2.398       .  S
Zr84        O666   2.372   1_554  S
O85        Zr671   2.433       .  S
O85         H710   0.990       .  S
O86         H131   0.989       .  S
O86         H705   0.990       .  S
O87        Zr671   2.393   1_554  S
O88         H114   0.965       .  S
O89         Zr99   2.378       .  S
O90         Zr99   2.377       .  S
O90        Zr671   2.391   1_554  S
O90         H115   0.965       .  S
C91         C564   1.492       .  S
C92         C533   1.502       .  S
O94         H130   0.990       .  S
O95          C97   1.283       .  A
O96          C97   1.294       .  A
C97         C578   1.503       .  S
O98         Zr99   2.437       .  S
O98         H127   0.990       .  S
Zr99        O102   2.435       .  S
Zr99        O103   2.444       .  S
Zr99        O104   2.434       .  S
O100        C105   1.289       .  A
O101        H118   0.990       .  S
O101        H133   0.990       .  S
O102        H119   0.990       .  S
O103        H123   0.990       .  S
O103        H132   0.989       .  S
O104        C105   1.284       .  A
C105        C550   1.498       .  S
O106        H125   0.990       .  S
O106        H129   0.990       .  S
O107        H121   0.990       .  S
O107        H128   0.990       .  S
O108        C112   1.293       .  A
O109       Zr671   2.399   1_554  S
O109        C112   1.279       .  A
O110       Zr672   2.434       .  S
O110        H120   0.990       .  S
O111        H124   0.990       .  S
H117        O674   0.990       .  S
H122        O673   0.990       .  S
H134        O658   0.989       .  S
Zr135       O136   2.439       .  S
Zr135       O137   2.451       .  S
Zr135       O138   2.455       .  S
Zr135       O141   2.473       .  S
Zr135       O143   2.392       .  S
Zr135       O144   2.383       .  S
Zr135       O145   2.418       .  S
Zr135       O146   2.406       .  S
O136        H192   0.990       .  S
O136        H200   0.990       .  S
O137        C157   1.288       .  A
O138        C159   1.287       .  A
O139       Zr149   2.421       .  S
O139        C158   1.281       .  A
O140       Zr148   2.375       .  S
O140        C159   1.275       .  A
O141        C158   1.292       .  A
O142       Zr150   2.428       .  S
O142        C157   1.283       .  A
O143       Zr148   2.397       .  S
O143       Zr150   2.371       .  S
O144       Zr149   2.374       .  S
O144       Zr150   2.378       .  S
O144        H179   0.966       .  S
O145       Zr148   2.400       .  S
O145       Zr165   2.395       .  S
O145        H182   0.966       .  S
O146       Zr149   2.381       .  S
O146       Zr165   2.403       .  S
Zr147       O172   2.439       .  S
Zr147       O166   2.456       .  S
Zr147       O174   2.467       .  S
Zr147       O162   2.475       .  S
Zr147       O155   2.379       .  S
Zr147       O741   2.424       .  S
Zr147       O742   2.410       .  S
Zr147       O744   2.388       .  S
Zr148       O160   2.435   1_554  S
Zr148       O755   2.436   1_554  S
Zr148       O749   2.416   1_554  S
Zr148       O154   2.386   1_554  S
Zr148       O743   2.373   1_554  S
Zr149       O151   2.438       .  S
Zr149       O173   2.439       .  S
Zr149       O175   2.382       .  S
Zr149       O153   2.398       .  S
Zr149       O156   2.391       .  S
Zr150       O176   2.431       .  S
Zr150       O177   2.435       .  S
Zr150       O152   2.438       .  S
Zr150       O153   2.399       .  S
Zr150       O154   2.394   1_554  S
O151        H188   0.990       .  S
O152        H183   0.990       .  S
O152        H197   0.990       .  S
O153       Zr735   2.420   1_554  S
O154       Zr735   2.408       .  S
O154        H768   0.966       .  S
O155       Zr736   2.375       .  S
O155       Zr753   2.380       .  S
O156       Zr165   2.373       .  S
O156       Zr735   2.395   1_554  S
O156        H181   0.965       .  S
C157        C505   1.495       .  S
C158        C480   1.499       .  S
O160        H196   0.990       .  S
O161       Zr736   2.426       .  S
O161        C163   1.283       .  A
O162        C163   1.292       .  A
C163        C519   1.500       .  S
O164       Zr165   2.436       .  S
O164        H193   0.990       .  S
Zr165       O169   2.440       .  S
Zr165       O756   2.435       .  S
Zr165       O758   2.427   1_554  S
Zr165       O743   2.378   1_554  S
O166        C171   1.290       .  A
O167       Zr736   2.435       .  S
O167        H184   0.990       .  S
O167        H199   0.990       .  S
O168       Zr753   2.436       .  S
O168        H185   0.990       .  S
O169        H189   0.990       .  S
O169        H198   0.989       .  S
O170       Zr753   2.424       .  S
O170        C171   1.283       .  A
C171        C491   1.498       .  S
O172        H191   0.990       .  S
O172        H195   0.990       .  S
O173        H187   0.989       .  S
O173        H194   0.990       .  S
O174        C178   1.290       .  A
O175        C766   1.275       .  A
O176        H186   0.989       .  S
O177        H190   0.990   1_554  S
C178        C612   1.474       .  S
C178        O763   1.275       .  A
H180        O742   0.966       .  S
Zr201       O202   2.434       .  S
Zr201       O203   2.440       .  S
Zr201       O204   2.428       .  S
Zr201       O207   2.423       .  S
Zr201       O209   2.377       .  S
Zr201       O210   2.376       .  S
Zr201       O211   2.409       .  S
Zr201       O212   2.402       .  S
O202        H258   0.990       .  S
O202        H266   0.989       .  S
O203        C223   1.285       .  A
O204        C225   1.284       .  A
O205       Zr215   2.422       .  S
O205        C224   1.283       .  A
O206       Zr214   2.419       .  S
O206        C225   1.283       .  A
O207        C224   1.281       .  A
O208       Zr216   2.448       .  S
O208        C223   1.287       .  A
O209       Zr214   2.392       .  S
O209       Zr216   2.376       .  S
O210       Zr215   2.378       .  S
O210       Zr216   2.369       .  S
O210        H245   0.966       .  S
O211       Zr214   2.400       .  S
O211       Zr231   2.402   1_554  S
O211        H248   0.966       .  S
O212       Zr215   2.392       .  S
O212       Zr231   2.402   1_554  S
Zr213       O238   2.436       .  S
Zr213       O232   2.433       .  S
Zr213       O240   2.428       .  S
Zr213       O228   2.434       .  S
Zr213       O222   2.379       .  S
Zr213       O807   2.407       .  S
Zr213       O808   2.399       .  S
Zr213       O809   2.377       .  S
Zr214       O233   2.438       .  S
Zr214       O226   2.431       .  S
Zr214       O227   2.430       .  S
Zr214       O220   2.386       .  S
Zr214       O221   2.385       .  S
Zr215       O239   2.441       .  S
Zr215       O805   2.432   1_554  S
Zr215       O829   2.419   1_554  S
Zr215       O219   2.396       .  S
Zr215       O810   2.393   1_554  S
Zr216       O242   2.435       .  S
Zr216       O243   2.437       .  S
Zr216       O218   2.434       .  S
Zr216       O219   2.408       .  S
Zr216       O220   2.395       .  S
O217       Zr803   2.434       .  S
O217        H254   0.990       .  S
O218        H249   0.990       .  S
O218        H263   0.990       .  S
O219       Zr801   2.407   1_554  S
O220       Zr801   2.402   1_554  S
O220        H246   0.966       .  S
O221       Zr231   2.371   1_554  S
O221       Zr801   2.380   1_554  S
O222       Zr803   2.393       .  S
O222       Zr819   2.372       .  S
O222        H247   0.966       .  S
C223        C463   1.509       .  S
C225        C435   1.481       .  S
O226        H262   0.990       .  S
O227        C229   1.285       .  A
O228        C817   1.284       .  A
C229        C609   1.478       .  S
C229        O816   1.282   1_554  A
O230       Zr231   2.437   1_554  S
O230        H259   0.990       .  S
Zr231       O234   2.435       .  S
Zr231       O823   2.440       .  S
Zr231       O824   2.443       .  S
Zr231       O810   2.370       .  S
O232        C237   1.284       .  A
O233        H250   0.990       .  S
O233        H265   0.990       .  S
O234        H839   0.990   1_556  S
O235       Zr819   2.441       .  S
O235        H255   0.989       .  S
O235        H264   0.990       .  S
O236       Zr819   2.448       .  S
O236        C237   1.287       .  A
C237        C421   1.509       .  S
O238        H257   0.990       .  S
O238        H849   0.989       .  S
O239        H260   0.990       .  S
O239        H841   0.990   1_554  S
O240        C244   1.285       .  A
O241       Zr803   2.416       .  S
O241        C244   1.281       .  A
O242        H252   0.991       .  S
O243        H256   0.990       .  S
C244        C452   1.479       .  S
H251        O822   0.990       .  S
H253        O827   0.990       .  S
H261        O826   0.988       .  S
Zr267       O268   2.435       .  S
Zr267       O269   2.411       .  S
Zr267       O270   2.467       .  S
Zr267       O273   2.427       .  S
Zr267       O275   2.376       .  S
Zr267       O864   2.391       .  S
Zr267       O865   2.394       .  S
Zr267       O866   2.403       .  S
O268        H324   0.990       .  S
O268        H332   0.989       .  S
O269        C289   1.281       .  A
O270        C291   1.291       .  A
O271       Zr281   2.402       .  S
O271        C290   1.278       .  A
O272       Zr868   2.427       .  S
O272        C291   1.283       .  A
O273        C878   1.283       .  A
O274       Zr870   2.431       .  S
O274        C289   1.284       .  A
O275       Zr868   2.385       .  S
O275       Zr870   2.380       .  S
O276       Zr281   2.388       .  S
O276       Zr282   2.367       .  S
O276       Zr855   2.389   1_554  S
O276        H311   0.965       .  S
O277       Zr280   2.391   1_554  S
O277       Zr297   2.389       .  S
O277       Zr855   2.395   1_554  S
O277        H314   0.966   1_554  S
O278       Zr281   2.402       .  S
O278       Zr297   2.392       .  S
O278       Zr855   2.405   1_554  S
Zr279       O304   2.437       .  S
Zr279       O298   2.418       .  S
Zr279       O306   2.450       .  S
Zr279       O294   2.432       .  S
Zr279       O285   2.394       .  S
Zr279       O286   2.405       .  S
Zr279       O287   2.384       .  S
Zr279       O288   2.379       .  S
Zr280       O299   2.437       .  S
Zr280       O880   2.433       .  S
Zr280       O293   2.408   1_556  S
Zr280       O860   2.430       .  S
Zr280       O286   2.398   1_556  S
Zr280       O287   2.388   1_556  S
Zr280       O863   2.384       .  S
Zr281       O283   2.435       .  S
Zr281       O305   2.438       .  S
Zr281       O307   2.435       .  S
Zr281       O285   2.383       .  S
Zr281       O288   2.380       .  S
Zr282       O308   2.436       .  S
Zr282       O309   2.436       .  S
Zr282       O872   2.431   1_554  S
Zr282       O862   2.422   1_554  S
Zr282       O285   2.395       .  S
Zr282       O286   2.389       .  S
Zr282       O863   2.383   1_554  S
O283        H320   0.990       .  S
O284       Zr870   2.433       .  S
O284        H315   0.990       .  S
O284        H329   0.990       .  S
O286        H312   0.966       .  S
O287       Zr297   2.372       .  S
O288       Zr297   2.380       .  S
O288        H313   0.966       .  S
C289        C382   1.489       .  S
C290        C610   1.465       .  S
C290        O861   1.285   1_554  A
C291        C407   1.505       .  S
O292       Zr868   2.436       .  S
O292        H328   0.990       .  S
O293        C295   1.280       .  A
O294        C295   1.283       .  A
O296       Zr297   2.437       .  S
O296        H325   0.990       .  S
Zr297       O300   2.436       .  S
Zr297       O301   2.438       .  S
Zr297       O302   2.419       .  S
O298        C303   1.282       .  A
O299        H331   0.990       .  S
O299        H904   0.990   1_556  S
O300        H317   0.990       .  S
O301        H321   0.990       .  S
O301        H330   0.990       .  S
O302        C303   1.281       .  A
C303        C393   1.492       .  S
O304        H323   0.990       .  S
O304        H327   0.990       .  S
O305        H319   0.990       .  S
O305        H326   0.990       .  S
O306        C310   1.288       .  A
O307        C310   1.286       .  A
O308        H906   0.990       .  S
O309        H322   0.990       .  S
C310        C365   1.501       .  S
H316        O887   0.990       .  S
H318        O896   0.990       .  S
C333        C338   1.411       .  A
C333       C1510   1.423   1_455  A
C333        C575   1.516       .  S
C334        C335   1.411       .  A
C334       C1509   1.422       .  A
C334        C508   1.500       .  S
C335        C336   1.408       .  A
C335        H340   1.084       .  S
C336       C1513   1.422       .  A
C336        C522   1.511       .  S
C337        C338   1.413       .  A
C337       C1512   1.420   1_455  A
C337        C561   1.502       .  S
C338        H339   1.084       .  S
C341        C346   1.400       .  A
C341       C1518   1.415       .  A
C341        C466   1.499       .  S
C342        C343   1.403       .  A
C342       C1517   1.416   1_455  A
C342        C396   1.480       .  S
C343        C344   1.398       .  A
C343        H348   1.084       .  S
C344       C1521   1.416   1_455  A
C344        C410   1.499       .  S
C345        C346   1.405       .  A
C345       C1520   1.414       .  A
C345        C449   1.478       .  S
C346        H347   1.084       .  S
C349        C350   1.415       .  A
C349        C354   1.404       .  A
C349        C438   1.476       .  S
C350        C351   1.397       .  A
C350        C368   1.499       .  S
C351        C352   1.404       .  A
C351        H356   1.084       .  S
C352        C353   1.414       .  A
C352        C379   1.477       .  S
C353        C354   1.397       .  A
C353        C424   1.498       .  S
C354        H355   1.084       .  S
C357        C358   1.422       .  A
C357        C362   1.412       .  A
C357        C547   1.504       .  S
C358        C359   1.409       .  A
C358        C477   1.512       .  S
C359        C360   1.412       .  A
C359        H364   1.084       .  S
C360        C361   1.422       .  A
C360        C494   1.501       .  S
C361        C362   1.409       .  A
C361        C536   1.511       .  S
C362        H363   1.084       .  S
C365        C366   1.419       .  A
C365        C370   1.418       .  A
C366        C367   1.414       .  A
C366        C371   1.451       .  S
C367        C368   1.410       .  A
C367        C374   1.450       .  S
C368        C369   1.412       .  A
C369        C370   1.416       .  A
C369        C372   1.449       .  S
C370        C373   1.450       .  S
C371        N378   1.157       .  T
C372        N377   1.157       .  T
C373        N375   1.157       .  T
C374        N376   1.157       .  T
C379        C380   1.407       .  A
C379        C384   1.406       .  A
C380        C381   1.409       .  A
C380        C385   1.451       .  S
C381        C382   1.418       .  A
C381        C388   1.450       .  S
C382        C383   1.421       .  A
C383        C384   1.405       .  A
C383        C386   1.452       .  S
C384        C387   1.452       .  S
C385        N392   1.157       .  T
C386        N391   1.157       .  T
C387        N389   1.157       .  T
C388        N390   1.157       .  T
C393        C394   1.421       .  A
C393        C398   1.420       .  A
C394        C395   1.409       .  A
C394        C399   1.451       .  S
C395        C396   1.407       .  A
C395        C402   1.451       .  S
C396        C397   1.407       .  A
C397        C398   1.405       .  A
C397       C1576   1.451       .  S
C398        C401   1.453       .  S
C399        N406   1.157       .  T
C400       C1573   1.450       .  S
C400        N405   1.157       .  T
C401        N403   1.157       .  T
C402        N404   1.157       .  T
C407        C408   1.421       .  A
C407        C412   1.417       .  A
C408        C409   1.416       .  A
C408        C413   1.451       .  S
C409        C410   1.411       .  A
C409        C416   1.450       .  S
C410        C411   1.410       .  A
C411        C412   1.415       .  A
C411       C1590   1.449       .  S
C412        C415   1.448       .  S
C413        N420   1.157       .  T
C414       C1587   1.450       .  S
C414        N419   1.157       .  T
C415        N417   1.157       .  T
C416        N418   1.157       .  T
C421        C422   1.424       .  A
C421        C426   1.421       .  A
C422        C423   1.414       .  A
C422        C427   1.451       .  S
C423        C424   1.408       .  A
C423        C430   1.451       .  S
C424        C425   1.410       .  A
C425        C426   1.416       .  A
C425        C428   1.450       .  S
C426        C429   1.450       .  S
C427        N434   1.157       .  T
C428        N433   1.157       .  T
C429        N431   1.157       .  T
C430        N432   1.157       .  T
C435        C436   1.415       .  A
C435        C440   1.417       .  A
C436        C437   1.405       .  A
C436        C441   1.449       .  S
C437        C438   1.407       .  A
C437        C444   1.451       .  S
C438        C439   1.408       .  A
C439        C440   1.408       .  A
C439        C442   1.451       .  S
C440        C443   1.451       .  S
C441        N448   1.157       .  T
C442        N447   1.157       .  T
C443        N445   1.157       .  T
C444        N446   1.157       .  T
C449        C450   1.408       .  A
C449        C454   1.409       .  A
C450        C451   1.405       .  A
C450        C455   1.449       .  S
C451        C452   1.413       .  A
C451        C458   1.451       .  S
C452        C453   1.415       .  A
C453        C454   1.407       .  A
C453        C456   1.451       .  S
C454        C457   1.451       .  S
C455        N462   1.157       .  T
C456        N461   1.157       .  T
C457        N459   1.157       .  T
C458        N460   1.157       .  T
C463        C464   1.423       .  A
C463        C468   1.421       .  A
C464        C465   1.415       .  A
C464        C469   1.451       .  S
C465        C466   1.410       .  A
C465        C472   1.450       .  S
C466        C467   1.409       .  A
C467        C468   1.416       .  A
C467        C470   1.451       .  S
C468        C471   1.449       .  S
C469        N476   1.157       .  T
C470       N1651   1.157       .  T
C471        N473   1.157       .  T
C472        N474   1.157       .  T
N475       C1646   1.157       .  T
C477        C478   1.417       .  A
C477        C482   1.417       .  A
C478        C479   1.419       .  A
C478        C483   1.448       .  S
C479        C480   1.413       .  A
C479        C486   1.450       .  S
C480        C481   1.415       .  A
C481        C482   1.417       .  A
C481        C484   1.451       .  S
C482        C485   1.451       .  S
C483        N490   1.157       .  T
C484        N489   1.157       .  T
C485        N487   1.157       .  T
C486        N488   1.157       .  T
C491        C492   1.414       .  A
C491        C496   1.418       .  A
C492        C493   1.415       .  A
C492        C497   1.452       .  S
C493        C494   1.415       .  A
C493        C500   1.448       .  S
C494        C495   1.414       .  A
C495        C496   1.415       .  A
C495        C498   1.451       .  S
C496        C499   1.452       .  S
C497        N504   1.157       .  T
C498        N503   1.157       .  T
C499        N501   1.157       .  T
C500        N502   1.157       .  T
C505        C506   1.414       .  A
C505        C510   1.417       .  A
C506        C507   1.417       .  A
C506        C511   1.451       .  S
C507        C508   1.416       .  A
C507        C514   1.449       .  S
C508        C509   1.413       .  A
C509        C510   1.411       .  A
C509        C512   1.452       .  S
C510        C513   1.451       .  S
C511        N518   1.157       .  T
C512        N517   1.157       .  T
C513        N515   1.157       .  T
C514        N516   1.157       .  T
C519        C520   1.414       .  A
C519        C524   1.414       .  A
C520        C521   1.420       .  A
C520        C525   1.450       .  S
C521        C522   1.417       .  A
C521        C528   1.449       .  S
C522        C523   1.417       .  A
C523        C524   1.415       .  A
C523        C526   1.451       .  S
C524        C527   1.451       .  S
C525        N532   1.157       .  T
C526        N531   1.157       .  T
C527        N529   1.157       .  T
C528       N1706   1.157       .  T
N530       C1704   1.157       .  T
C533        C534   1.416       .  A
C533        C538   1.414       .  A
C534        C535   1.415       .  A
C534        C539   1.452       .  S
C535        C536   1.416       .  A
C535        C542   1.450       .  S
C536        C537   1.418       .  A
C537        C538   1.422       .  A
C537        C540   1.448       .  S
C538        C541   1.450       .  S
C539        N546   1.157       .  T
C540        N545   1.157       .  T
C541        N543   1.157       .  T
C542        N544   1.157       .  T
C547        C548   1.415       .  A
C547        C552   1.415       .  A
C548        C549   1.415       .  A
C548        C553   1.448       .  S
C549        C550   1.414       .  A
C549        C556   1.452       .  S
C550        C551   1.417       .  A
C551        C552   1.415       .  A
C551        C554   1.451       .  S
C552        C555   1.452       .  S
C553        N560   1.157       .  T
C554        N559   1.157       .  T
C555        N557   1.158       .  T
C556        N558   1.157       .  T
C561        C562   1.413       .  A
C561        C566   1.417       .  A
C562        C563   1.411       .  A
C562       C1743   1.451       .  S
C563        C564   1.415       .  A
C563        C570   1.451       .  S
C564        C565   1.413       .  A
C565        C566   1.416       .  A
C565        C568   1.452       .  S
C566        C569   1.449       .  S
C567       C1738   1.452       .  S
C567        N574   1.157       .  T
C568        N573   1.158       .  T
C569        N571   1.157       .  T
C570        N572   1.157       .  T
C575        C576   1.420       .  A
C575        C580   1.417       .  A
C576        C577   1.424       .  A
C576        C581   1.449       .  S
C577        C578   1.415       .  A
C577        C584   1.450       .  S
C578        C579   1.414       .  A
C579        C580   1.415       .  A
C579        C582   1.451       .  S
C580        C583   1.450       .  S
C581        N588   1.157       .  T
C582        N587   1.157       .  T
C583        N585   1.157       .  T
C584        N586   1.158       .  T
N589        C594   1.350       .  A
N589        C593   1.350   1_554  A
N589        H621   1.035       .  S
N590        C597   1.354       .  A
N590        C598   1.350       .  A
N591        C596   1.362       .  A
N591        C595   1.356       .  A
N591        H622   1.029       .  S
N592        C599   1.344       .  A
N592        C600   1.347       .  A
C593        C601   1.384       .  A
C593        C609   1.406   1_556  A
C594        C610   1.414       .  A
C594        C602   1.390   1_554  A
C595        C603   1.388       .  A
C595        C612   1.427       .  A
C596        C611   1.432       .  A
C596        C604   1.386       .  A
C597        C609   1.412   1_556  A
C597        C605   1.385   1_556  A
C598        C606   1.388   1_556  A
C599        C607   1.386       .  A
C600        C608   1.387       .  A
C600        C611   1.410       .  A
C601        C602   1.371       .  A
C601        H613   1.083       .  S
C602        H614   1.081       .  S
C603        C604   1.368       .  A
C603        H615   1.079       .  S
C604        H616   1.080       .  S
C605        C606   1.376       .  A
C605        H617   1.082       .  S
C606        H618   1.083       .  S
C607        C608   1.374       .  A
C607        H619   1.083       .  S
C608        H620   1.080       .  S
C611        C700   1.490       .  S
N623       C1804   1.361       .  A
N623        C627   1.356       .  A
N623        H655   1.033       .  S
N624        C631   1.350   1_565  A
N624        C632   1.353       .  A
N625       C1806   1.352       .  A
N625        C629   1.350       .  A
N625        H656   1.040       .  S
N626        C633   1.346   1_565  A
N626        C634   1.345       .  A
C627        C635   1.391       .  A
C627        C643   1.426       .  A
C628       N1799   1.359   1_455  A
C628        C644   1.430       .  A
C628        C636   1.389       .  A
C629        C637   1.385       .  A
C629        C646   1.405       .  A
C630       N1801   1.351   1_455  A
C630        C645   1.409       .  A
C630        C638   1.389       .  A
C631        C643   1.418       .  A
C631        C639   1.390       .  A
C632        C646   1.411       .  A
C632        C640   1.383       .  A
C633        C641   1.388       .  A
C633        C644   1.411       .  A
C634        C642   1.385       .  A
C634        C645   1.406       .  A
C635       C1812   1.365       .  A
C635        H647   1.082       .  S
C636       C1811   1.367   1_455  A
C636        H648   1.081       .  S
C637       C1814   1.370       .  A
C637        H649   1.082       .  S
C638       C1813   1.371   1_455  A
C638        H650   1.083       .  S
C639        C640   1.375   1_545  A
C639        H651   1.083       .  S
C640        H652   1.082       .  S
C641        C642   1.374   1_545  A
C641        H653   1.079       .  S
C642        H654   1.082       .  S
C643        C747   1.472       .  S
C644        C681   1.484       .  S
C645        C883   1.461       .  S
C646        C812   1.479       .  S
Zr657       O658   2.436       .  S
Zr657       O659   2.445       .  S
Zr657       O663   2.480       .  S
Zr657       O666   2.384       .  S
O658        H714   0.990       .  S
O659        C679   1.286       .  A
O660        C681   1.291       .  A
O661       Zr671   2.412       .  S
O661        C680   1.281       .  A
O662       Zr670   2.386       .  S
O662        C681   1.277       .  A
O663        C680   1.294       .  A
O664        C679   1.285       .  A
O665       Zr670   2.393       .  S
O665       Zr672   2.371       .  S
O666       Zr671   2.374       .  S
O666        H701   0.965       .  S
O667       Zr670   2.390       .  S
O667       Zr687   2.401       .  S
O667        H704   0.966       .  S
O668       Zr687   2.397       .  S
Zr669       O694   2.437       .  S
Zr669       O688   2.440       .  S
Zr669       O696   2.487       .  S
Zr669       O684   2.487       .  S
Zr669       O675   2.418       .  S
Zr669       O676   2.412       .  S
Zr669       O677   2.388       .  S
Zr669       O678   2.394       .  S
Zr670       O689   2.435       .  S
Zr670       O682   2.435       .  S
Zr670       O683   2.416       .  S
Zr670       O676   2.390       .  S
Zr670       O677   2.370       .  S
Zr671       O695   2.437       .  S
Zr672       O699   2.438       .  S
Zr672       O674   2.440       .  S
Zr672       O675   2.410       .  S
Zr672       O676   2.390       .  S
O674        H719   0.990       .  S
O676        H702   0.965       .  S
O677       Zr687   2.377       .  S
O678       Zr687   2.374       .  S
O678        H703   0.965       .  S
C679       C1152   1.494       .  S
C680       C1121   1.500       .  S
O682        H718   0.990       .  S
O683        C685   1.281       .  A
O684        C685   1.295       .  A
C685       C1166   1.503       .  S
O686       Zr687   2.436       .  S
O686        H715   0.990       .  S
Zr687       O690   2.433       .  S
Zr687       O691   2.441       .  S
Zr687       O692   2.441       .  S
O688        C693   1.287       .  A
O689        H706   0.989       .  S
O689        H721   0.990       .  S
O690        H707   0.990       .  S
O691        H711   0.990       .  S
O691        H720   0.989       .  S
O692        C693   1.286       .  A
C693       C1138   1.497       .  S
O694        H713   0.990       .  S
O694        H717   0.990       .  S
O695        H709   0.989       .  S
O695        H716   0.990       .  S
O696        C700   1.295       .  A
O697        C700   1.277       .  A
O698        H708   0.990       .  S
O699        H712   0.990       .  S
Zr723       O724   2.439       .  S
Zr723       O725   2.459       .  S
Zr723       O726   2.467       .  S
Zr723       O729   2.469       .  S
Zr723       O731   2.387       .  S
Zr723       O732   2.388       .  S
Zr723       O733   2.415       .  S
Zr723       O734   2.405       .  S
O724        H780   0.990       .  S
O724        H788   0.990       .  S
O725        C745   1.290       .  A
O726        C747   1.290       .  A
O727       Zr737   2.417       .  S
O727        C746   1.282       .  A
O728       Zr736   2.376       .  S
O728        C747   1.275       .  A
O729        C746   1.292       .  A
O730       Zr738   2.441       .  S
O730        C745   1.286       .  A
O731       Zr736   2.396       .  S
O731       Zr738   2.374       .  S
O732       Zr737   2.371       .  S
O732       Zr738   2.378       .  S
O732        H767   0.966       .  S
O733       Zr736   2.401       .  S
O733       Zr753   2.391       .  S
O733        H770   0.966       .  S
O734       Zr737   2.380       .  S
O734       Zr753   2.397       .  S
Zr735       O760   2.440       .  S
Zr735       O754   2.457       .  S
Zr735       O762   2.463       .  S
Zr735       O750   2.485       .  S
Zr735       O743   2.381       .  S
Zr736       O748   2.436       .  S
Zr736       O742   2.383       .  S
Zr737       O739   2.436       .  S
Zr737       O761   2.437       .  S
Zr737       O763   2.380       .  S
Zr737       O741   2.392       .  S
Zr737       O744   2.389       .  S
Zr738       O764   2.434       .  S
Zr738       O765   2.440       .  S
Zr738       O740   2.441       .  S
Zr738       O741   2.407       .  S
Zr738       O742   2.397       .  S
O739        H776   0.990       .  S
O740        H771   0.990       .  S
O740        H785   0.990       .  S
O744       Zr753   2.370       .  S
O744        H769   0.963       .  S
C745       C1093   1.502       .  S
C746       C1068   1.497       .  S
O748        H784   0.990       .  S
O749        C751   1.281       .  A
O750        C751   1.295       .  A
C751       C1107   1.500       .  S
O752       Zr753   2.436       .  S
O752        H781   0.990       .  S
Zr753       O757   2.440       .  S
O754        C759   1.290       .  A
O755        H772   0.990       .  S
O755        H787   0.990       .  S
O756        H773   0.990   1_554  S
O757        H777   0.990       .  S
O757        H786   0.990       .  S
O758        C759   1.283       .  A
C759       C1079   1.497       .  S
O760        H779   0.990       .  S
O760        H783   0.991       .  S
O761        H775   0.990       .  S
O761        H782   0.990       .  S
O762        C766   1.289   1_556  A
O764        H774   0.989       .  S
O765        H778   0.990       .  S
Zr789       O790   2.435       .  S
Zr789       O791   2.442       .  S
Zr789       O792   2.432       .  S
Zr789       O795   2.426       .  S
Zr789       O797   2.377       .  S
Zr789       O798   2.378       .  S
Zr789       O799   2.410       .  S
Zr789       O800   2.405       .  S
O790        H846   0.990       .  S
O790        H854   0.989       .  S
O791        C811   1.285       .  A
O792        C813   1.285       .  A
O793       Zr803   2.431       .  S
O793        C812   1.286       .  A
O794       Zr802   2.418       .  S
O794        C813   1.282       .  A
O795        C812   1.282       .  A
O796       Zr804   2.442       .  S
O796        C811   1.286       .  A
O797       Zr802   2.396       .  S
O797       Zr804   2.374       .  S
O798       Zr803   2.382       .  S
O798       Zr804   2.370       .  S
O798        H833   0.966       .  S
O799       Zr802   2.401       .  S
O799       Zr819   2.402       .  S
O799        H836   0.966       .  S
O800       Zr803   2.387       .  S
O800       Zr819   2.403       .  S
Zr801       O826   2.433       .  S
Zr801       O820   2.430       .  S
Zr801       O828   2.429       .  S
Zr801       O816   2.425       .  S
Zr801       O810   2.377       .  S
Zr802       O821   2.436       .  S
Zr802       O814   2.436       .  S
Zr802       O815   2.428       .  S
Zr802       O808   2.392       .  S
Zr802       O809   2.385       .  S
Zr803       O827   2.438       .  S
Zr803       O807   2.399       .  S
Zr804       O830   2.435       .  S
Zr804       O831   2.436       .  S
Zr804       O806   2.437       .  S
Zr804       O807   2.407       .  S
Zr804       O808   2.397       .  S
O805        H842   0.990       .  S
O806        H837   0.989       .  S
O806        H851   0.990       .  S
O808        H834   0.966       .  S
O809       Zr819   2.372       .  S
O810        H835   0.966       .  S
C811       C1051   1.511       .  S
C813       C1023   1.485       .  S
O814        H850   0.990       .  S
O815        C817   1.284       .  A
O818       Zr819   2.436       .  S
O818        H847   0.990       .  S
Zr819       O822   2.436       .  S
O820        C825   1.283       .  A
O821        H838   0.990       .  S
O821        H853   0.990       .  S
O823        H843   0.990       .  S
O823        H852   0.989       .  S
O824        C825   1.286       .  A
C825       C1009   1.511       .  S
O826        H845   0.990       .  S
O827        H848   0.990       .  S
O828        C832   1.285       .  A
O829        C832   1.282       .  A
O830        H840   0.990       .  S
O831        H844   0.990       .  S
C832       C1040   1.481       .  S
Zr855       O856   2.437       .  S
Zr855       O857   2.414       .  S
Zr855       O858   2.467       .  S
Zr855       O861   2.435       .  S
Zr855       O863   2.379       .  S
O856        H912   0.990       .  S
O856        H920   0.989       .  S
O857        C877   1.281       .  A
O858        C879   1.290       .  A
O859       Zr869   2.402       .  S
O859        C878   1.279       .  A
O860        C879   1.285       .  A
O862        C877   1.282       .  A
O864       Zr869   2.388       .  S
O864       Zr870   2.370       .  S
O864        H899   0.965       .  S
O865       Zr868   2.392       .  S
O865       Zr885   2.398       .  S
O865        H902   0.966       .  S
O866       Zr869   2.400       .  S
O866       Zr885   2.391       .  S
Zr867       O892   2.439       .  S
Zr867       O886   2.419       .  S
Zr867       O894   2.441       .  S
Zr867       O882   2.425       .  S
Zr867       O873   2.393       .  S
Zr867       O874   2.403       .  S
Zr867       O875   2.385       .  S
Zr867       O876   2.375       .  S
Zr868       O887   2.436       .  S
Zr868       O881   2.406       .  S
Zr868       O874   2.398       .  S
Zr868       O875   2.391       .  S
Zr869       O871   2.436       .  S
Zr869       O893   2.437       .  S
Zr869       O895   2.435       .  S
Zr869       O873   2.378       .  S
Zr869       O876   2.376       .  S
Zr870       O896   2.435       .  S
Zr870       O897   2.436       .  S
Zr870       O873   2.395       .  S
Zr870       O874   2.386       .  S
O871        H908   0.990       .  S
O872        H903   0.990       .  S
O872        H917   0.990       .  S
O874        H900   0.966       .  S
O875       Zr885   2.375       .  S
O876       Zr885   2.378       .  S
O876        H901   0.966       .  S
C877        C970   1.482       .  S
C879        C995   1.504       .  S
O880        H916   0.990       .  S
O881        C883   1.279       .  A
O882        C883   1.282       .  A
O884       Zr885   2.436       .  S
O884        H913   0.990       .  S
Zr885       O888   2.436       .  S
Zr885       O889   2.436       .  S
Zr885       O890   2.430       .  S
O886        C891   1.283       .  A
O887        H919   0.990       .  S
O888        H905   0.990       .  S
O889        H909   0.989       .  S
O889        H918   0.989       .  S
O890        C891   1.284       .  A
C891        C981   1.491       .  S
O892        H911   0.990       .  S
O892        H915   0.990       .  S
O893        H907   0.990       .  S
O893        H914   0.990       .  S
O894        C898   1.287       .  A
O895        C898   1.285       .  A
O897        H910   0.990       .  S
C898        C953   1.494       .  S
C921       C2098   1.421   1_455  A
C921        C926   1.407       .  A
C921       C1163   1.508       .  S
C922       C2097   1.426       .  A
C922        C923   1.412       .  A
C922       C1096   1.509       .  S
C923        C924   1.409       .  A
C923        H928   1.084       .  S
C924       C2101   1.421       .  A
C924       C1110   1.510       .  S
C925       C2100   1.421   1_455  A
C925        C926   1.409       .  A
C925       C1149   1.500       .  S
C926        H927   1.084       .  S
C929       C2106   1.414       .  A
C929        C934   1.396       .  A
C929       C1054   1.499       .  S
C930       C2105   1.416   1_455  A
C930        C931   1.403       .  A
C930        C984   1.478       .  S
C931        C932   1.397       .  A
C931        H936   1.084       .  S
C932       C2109   1.414   1_455  A
C932        C998   1.499       .  S
C933       C2108   1.416       .  A
C933        C934   1.402       .  A
C933       C1037   1.476       .  S
C934        H935   1.085       .  S
C937        C938   1.414       .  A
C937        C942   1.402       .  A
C937       C1026   1.476       .  S
C938        C939   1.398       .  A
C938        C956   1.498       .  S
C939        C940   1.404       .  A
C939        H944   1.084       .  S
C940        C941   1.415       .  A
C940        C967   1.480       .  S
C941        C942   1.397       .  A
C941       C1012   1.497       .  S
C942        H943   1.084       .  S
C945        C946   1.418       .  A
C945        C950   1.409       .  A
C945       C1135   1.500       .  S
C946        C947   1.407       .  A
C946       C1065   1.506       .  S
C947        C948   1.410       .  A
C947        H952   1.084       .  S
C948        C949   1.422       .  A
C948       C1082   1.502       .  S
C949        C950   1.409       .  A
C949       C1124   1.508       .  S
C950        H951   1.084       .  S
C953        C954   1.415       .  A
C953        C958   1.415       .  A
C954        C955   1.413       .  A
C954        C959   1.451       .  S
C955        C956   1.412       .  A
C955        C962   1.450       .  S
C956        C957   1.413       .  A
C957        C958   1.415       .  A
C957        C960   1.449       .  S
C958        C961   1.451       .  S
C959        N966   1.157       .  T
C960        N965   1.157       .  T
C961        N963   1.157       .  T
C962        N964   1.157       .  T
C967        C968   1.409       .  A
C967        C972   1.408       .  A
C968        C969   1.408       .  A
C968        C973   1.452       .  S
C969        C970   1.416       .  A
C969        C976   1.450       .  S
C970        C971   1.417       .  A
C971        C972   1.405       .  A
C971        C974   1.452       .  S
C972        C975   1.451       .  S
C973        N980   1.157       .  T
C974        N979   1.157       .  T
C975        N977   1.157       .  T
C976        N978   1.157       .  T
C981        C982   1.420       .  A
C981        C986   1.420       .  A
C982        C983   1.411       .  A
C982        C987   1.450       .  S
C983        C984   1.407       .  A
C983        C990   1.452       .  S
C984        C985   1.406       .  A
C985        C986   1.405       .  A
C985       C2164   1.451       .  S
C986        C989   1.452       .  S
C987        N994   1.157       .  T
C988       C2161   1.452       .  S
C988        N993   1.157       .  T
C989        N991   1.157       .  T
C990        N992   1.157       .  T
C995        C996   1.419       .  A
C995       C1000   1.418       .  A
C996        C997   1.414       .  A
C996       C1001   1.451       .  S
C997        C998   1.411       .  A
C997       C1004   1.450       .  S
C998        C999   1.411       .  A
C999       C1000   1.417       .  A
C999       C2178   1.450       .  S
C1000      C1003   1.449       .  S
C1001      N1008   1.157       .  T
C1002      C2175   1.449       .  S
C1002      N1007   1.157       .  T
C1003      N1005   1.157       .  T
C1004      N1006   1.157       .  T
C1009      C1010   1.426       .  A
C1009      C1014   1.423       .  A
C1010      C1011   1.415       .  A
C1010      C1015   1.452       .  S
C1011      C1012   1.410       .  A
C1011      C1018   1.451       .  S
C1012      C1013   1.407       .  A
C1013      C1014   1.414       .  A
C1013      C1016   1.451       .  S
C1014      C1017   1.450       .  S
C1015      N1022   1.158       .  T
C1016      N1021   1.157       .  T
C1017      N1019   1.157       .  T
C1018      N1020   1.157       .  T
C1023      C1024   1.416       .  A
C1023      C1028   1.418       .  A
C1024      C1025   1.404       .  A
C1024      C1029   1.450       .  S
C1025      C1026   1.406       .  A
C1025      C1032   1.451       .  S
C1026      C1027   1.408       .  A
C1027      C1028   1.408       .  A
C1027      C1030   1.451       .  S
C1028      C1031   1.451       .  S
C1029      N1036   1.157       .  T
C1030      N1035   1.157       .  T
C1031      N1033   1.157       .  T
C1032      N1034   1.157       .  T
C1037      C1038   1.406       .  A
C1037      C1042   1.409       .  A
C1038      C1039   1.403       .  A
C1038      C1043   1.450       .  S
C1039      C1040   1.413       .  A
C1039      C1046   1.449       .  S
C1040      C1041   1.417       .  A
C1041      C1042   1.409       .  A
C1041      C1044   1.451       .  S
C1042      C1045   1.451       .  S
C1043      N1050   1.157       .  T
C1044      N1049   1.157       .  T
C1045      N1047   1.157       .  T
C1046      N1048   1.157       .  T
C1051      C1052   1.424       .  A
C1051      C1056   1.422       .  A
C1052      C1053   1.415       .  A
C1052      C1057   1.451       .  S
C1053      C1054   1.410       .  A
C1053      C1060   1.451       .  S
C1054      C1055   1.409       .  A
C1055      C1056   1.416       .  A
C1055      C1058   1.450       .  S
C1056      C1059   1.450       .  S
C1057      N1064   1.157       .  T
C1058      N2239   1.157       .  T
C1059      N1061   1.157       .  T
C1060      N1062   1.157       .  T
N1063      C2234   1.157       .  T
C1065      C1066   1.417       .  A
C1065      C1070   1.414       .  A
C1066      C1067   1.418       .  A
C1066      C1071   1.448       .  S
C1067      C1068   1.413       .  A
C1067      C1074   1.450       .  S
C1068      C1069   1.415       .  A
C1069      C1070   1.414       .  A
C1069      C1072   1.451       .  S
C1070      C1073   1.451       .  S
C1071      N1078   1.157       .  T
C1072      N1077   1.157       .  T
C1073      N1075   1.157       .  T
C1074      N1076   1.157       .  T
C1079      C1080   1.413       .  A
C1079      C1084   1.418       .  A
C1080      C1081   1.415       .  A
C1080      C1085   1.451       .  S
C1081      C1082   1.415       .  A
C1081      C1088   1.448       .  S
C1082      C1083   1.414       .  A
C1083      C1084   1.414       .  A
C1083      C1086   1.452       .  S
C1084      C1087   1.451       .  S
C1085      N1092   1.157       .  T
C1086      N1091   1.157       .  T
C1087      N1089   1.157       .  T
C1088      N1090   1.157       .  T
C1093      C1094   1.415       .  A
C1093      C1098   1.417       .  A
C1094      C1095   1.419       .  A
C1094      C1099   1.451       .  S
C1095      C1096   1.416       .  A
C1095      C1102   1.449       .  S
C1096      C1097   1.416       .  A
C1097      C1098   1.417       .  A
C1097      C1100   1.451       .  S
C1098      C1101   1.452       .  S
C1099      N1106   1.157       .  T
C1100      N1105   1.157       .  T
C1101      N1103   1.157       .  T
C1102      N1104   1.157       .  T
C1107      C1108   1.413       .  A
C1107      C1112   1.416       .  A
C1108      C1109   1.419       .  A
C1108      C1113   1.450       .  S
C1109      C1110   1.417       .  A
C1109      C1116   1.448       .  S
C1110      C1111   1.415       .  A
C1111      C1112   1.416       .  A
C1111      C1114   1.451       .  S
C1112      C1115   1.451       .  S
C1113      N1120   1.157       .  T
C1114      N1119   1.157       .  T
C1115      N1117   1.157       .  T
C1116      N2294   1.157       .  T
N1118      C2292   1.157       .  T
C1121      C1122   1.416       .  A
C1121      C1126   1.414       .  A
C1122      C1123   1.413       .  A
C1122      C1127   1.451       .  S
C1123      C1124   1.414       .  A
C1123      C1130   1.451       .  S
C1124      C1125   1.417       .  A
C1125      C1126   1.421       .  A
C1125      C1128   1.448       .  S
C1126      C1129   1.450       .  S
C1127      N1134   1.157       .  T
C1128      N1133   1.157       .  T
C1129      N1131   1.157       .  T
C1130      N1132   1.157       .  T
C1135      C1136   1.415       .  A
C1135      C1140   1.412       .  A
C1136      C1137   1.416       .  A
C1136      C1141   1.449       .  S
C1137      C1138   1.415       .  A
C1137      C1144   1.452       .  S
C1138      C1139   1.417       .  A
C1139      C1140   1.413       .  A
C1139      C1142   1.450       .  S
C1140      C1143   1.451       .  S
C1141      N1148   1.157       .  T
C1142      N1147   1.157       .  T
C1143      N1145   1.157       .  T
C1144      N1146   1.158       .  T
C1149      C1150   1.414       .  A
C1149      C1154   1.415       .  A
C1150      C1151   1.413       .  A
C1150      C2331   1.452       .  S
C1151      C1152   1.417       .  A
C1151      C1158   1.451       .  S
C1152      C1153   1.414       .  A
C1153      C1154   1.414       .  A
C1153      C1156   1.451       .  S
C1154      C1157   1.449       .  S
C1155      C2326   1.452       .  S
C1155      N1162   1.157       .  T
C1156      N1161   1.157       .  T
C1157      N1159   1.157       .  T
C1158      N1160   1.157       .  T
C1163      C1164   1.416       .  A
C1163      C1168   1.414       .  A
C1164      C1165   1.421       .  A
C1164      C1169   1.449       .  S
C1165      C1166   1.417       .  A
C1165      C1172   1.450       .  S
C1166      C1167   1.418       .  A
C1167      C1168   1.414       .  A
C1167      C1170   1.452       .  S
C1168      C1171   1.451       .  S
C1169      N1176   1.157       .  T
C1170      N1175   1.157       .  T
C1171      N1173   1.157       .  T
C1172      N1174   1.157       .  T
N1177      C1182   1.351       .  A
N1177      C1181   1.351       .  A
N1177      H1209   1.037       .  S
N1178      C1185   1.356       .  A
N1178      C1186   1.352       .  A
N1179      C1184   1.360       .  A
N1179      C1183   1.355   1_554  A
N1179      H1210   1.031       .  S
N1180      C1187   1.344       .  A
N1180      C1188   1.348       .  A
C1181      C1189   1.385       .  A
C1181      C1197   1.408       .  A
C1182      C1198   1.414       .  A
C1182      C1190   1.390       .  A
C1183      C1191   1.388       .  A
C1183      C1200   1.424       .  A
C1184      C1199   1.431       .  A
C1184      C1192   1.388       .  A
C1185      C1197   1.416       .  A
C1185      C1193   1.384       .  A
C1186      C1788   1.420       .  A
C1186      C1194   1.389       .  A
C1187      C1195   1.386       .  A
C1187      C1786   1.406       .  A
C1188      C1196   1.387       .  A
C1188      C1199   1.410       .  A
C1189      C1190   1.372       .  A
C1189      H1201   1.083       .  S
C1190      H1202   1.081       .  S
C1191      C1192   1.369   1_556  A
C1191      H1203   1.081       .  S
C1192      H1204   1.080       .  S
C1193      C1194   1.377       .  A
C1193      H1205   1.082       .  S
C1194      H1206   1.083       .  S
C1195      C1196   1.374       .  A
C1195      H1207   1.083       .  S
C1196      H1208   1.079       .  S
C1197      C1993   1.488       .  S
C1198      C1775   1.407       .  A
C1198      C2054   1.463       .  S
C1199      C1288   1.488       .  S
C1200      C1774   1.418       .  A
C1200      C1942   1.474   1_556  S
N1211      C1215   1.355       .  A
N1211      H1243   1.032       .  S
N1212      C1219   1.351   1_565  A
N1212      C1220   1.355       .  A
N1213      C1217   1.349       .  A
N1213      H1244   1.036       .  S
N1214      C1221   1.346   1_565  A
N1214      C1222   1.344       .  A
C1215      C1223   1.387       .  A
C1215      C1231   1.419       .  A
C1216      C1232   1.429       .  A
C1216      C1224   1.388       .  A
C1217      C1225   1.385       .  A
C1217      C1234   1.406       .  A
C1218      C1233   1.411       .  A
C1218      C1226   1.389       .  A
C1219      C1231   1.416       .  A
C1219      C1227   1.388       .  A
C1220      C1234   1.413       .  A
C1220      C1228   1.385       .  A
C1221      C1229   1.387       .  A
C1221      C1232   1.409       .  A
C1222      C1230   1.386       .  A
C1222      C1233   1.406       .  A
C1223      H1235   1.083       .  S
C1224      H1236   1.081       .  S
C1225      H1237   1.083       .  S
C1226      H1238   1.083       .  S
C1227      C1228   1.376   1_545  A
C1227      H1239   1.082       .  S
C1228      H1240   1.082       .  S
C1229      C1230   1.374   1_545  A
C1229      H1241   1.080       .  S
C1230      H1242   1.082       .  S
C1231      C1335   1.473       .  S
C1232      C1269   1.484       .  S
C1233      C1471   1.461       .  S
C1234      C1400   1.480       .  S
Zr1245     O1246   2.439       .  S
Zr1245     O1247   2.449       .  S
Zr1245     O1836   2.467       .  S
Zr1245     O1251   2.482       .  S
Zr1245     O1841   2.390       .  S
Zr1245     O1254   2.383       .  S
Zr1245     O1843   2.421       .  S
Zr1245     O1844   2.405       .  S
O1246      H1302   0.990       .  S
O1246      H1898   0.990       .  S
O1247      C1267   1.287       .  A
O1248     Zr1833   2.478   1_554  S
O1248      C1269   1.293       .  A
O1249     Zr1259   2.410       .  S
O1249      C1268   1.280       .  A
O1250     Zr1258   2.379       .  S
O1250      C1269   1.275       .  A
O1251      C1268   1.294       .  A
O1252     Zr1848   2.443       .  S
O1252      C1267   1.286       .  A
O1253     Zr1833   2.386   1_554  S
O1253     Zr1258   2.400       .  S
O1253     Zr1260   2.375       .  S
O1254     Zr1259   2.365       .  S
O1254     Zr1848   2.377       .  S
O1254      H1289   0.965       .  S
O1255     Zr1833   2.423   1_554  S
O1255     Zr1258   2.394       .  S
O1255     Zr1275   2.407       .  S
O1255      H1292   0.966       .  S
O1256     Zr1833   2.412   1_554  S
O1256     Zr1847   2.389   1_554  S
O1256     Zr1275   2.403       .  S
Zr1257     O1282   2.436       .  S
Zr1257     O1276   2.448       .  S
Zr1257     O1284   2.478       .  S
Zr1257     O1272   2.477       .  S
Zr1257     O1263   2.418       .  S
Zr1257     O1264   2.414       .  S
Zr1257     O1265   2.381       .  S
Zr1257     O1266   2.394       .  S
Zr1258     O1277   2.436       .  S
Zr1258     O1270   2.435       .  S
Zr1258     O1271   2.414       .  S
Zr1258     O1264   2.389       .  S
Zr1258     O1265   2.366       .  S
Zr1259     O1849   2.436       .  S
Zr1259     O1283   2.436       .  S
Zr1259     O1873   2.388       .  S
Zr1259     O1844   2.385       .  S
Zr1259     O1851   2.389       .  S
Zr1259     O1854   2.395       .  S
Zr1260     O1874   2.434   1_554  S
Zr1260     O1287   2.435       .  S
Zr1260     O1262   2.441       .  S
Zr1260     O1840   2.446   1_554  S
Zr1260     O1842   2.375   1_554  S
Zr1260     O1263   2.411       .  S
Zr1260     O1264   2.399       .  S
O1261     Zr1847   2.435       .  S
O1261      H1886   0.990       .  S
O1262      H1881   0.990       .  S
O1262      H1307   0.989       .  S
O1263     Zr1847   2.386   1_554  S
O1264      H1290   0.965       .  S
O1265     Zr1275   2.373       .  S
O1266     Zr1847   2.395   1_554  S
O1266     Zr1275   2.372       .  S
O1266      H1291   0.965       .  S
C1267      C1740   1.495       .  S
C1268      C1709   1.501       .  S
O1270      H1306   0.990       .  S
O1271      C1273   1.281       .  A
O1272      C1273   1.294       .  A
C1273      C1754   1.498       .  S
O1274     Zr1275   2.436       .  S
O1274      H1303   0.990       .  S
Zr1275     O1278   2.435       .  S
Zr1275     O1279   2.441       .  S
Zr1275     O1280   2.450       .  S
O1276      C1281   1.289       .  A
O1277      H1294   0.990       .  S
O1277      H1309   0.990       .  S
O1278      H1295   0.990       .  S
O1279      H1299   0.990       .  S
O1279      H1308   0.990       .  S
O1280      C1281   1.287       .  A
C1281      C1726   1.503       .  S
O1282      H1301   0.990       .  S
O1282      H1305   0.990       .  S
O1283      H1297   0.990       .  S
O1283      H1304   0.990       .  S
O1284      C1288   1.293       .  A
O1285     Zr1847   2.396   1_554  S
O1285      C1288   1.278       .  A
O1286     Zr1848   2.434       .  S
O1286      H1296   0.991       .  S
O1287      H1300   0.990       .  S
H1293      O1850   0.990       .  S
H1298      O1849   0.991       .  S
H1310      O1834   0.990       .  S
Zr1311     O1312   2.440       .  S
Zr1311     O1313   2.458       .  S
Zr1311     O1314   2.472       .  S
Zr1311     O1317   2.470       .  S
Zr1311     O1319   2.388       .  S
Zr1311     O1320   2.386       .  S
Zr1311     O1321   2.417       .  S
Zr1311     O1322   2.408       .  S
O1312      H1368   0.990       .  S
O1312      H1376   0.990       .  S
O1313      C1333   1.289       .  A
O1314      C1335   1.290       .  A
O1315     Zr1325   2.417       .  S
O1315      C1334   1.282       .  A
O1316     Zr1324   2.379       .  S
O1316      C1335   1.275       .  A
O1317      C1334   1.291       .  A
O1318     Zr1326   2.419       .  S
O1318      C1333   1.281       .  A
O1319     Zr1324   2.398       .  S
O1319     Zr1326   2.377       .  S
O1320     Zr1325   2.373       .  S
O1320     Zr1326   2.377       .  S
O1320      H1355   0.966       .  S
O1321     Zr1324   2.402       .  S
O1321     Zr1341   2.395       .  S
O1321      H1358   0.966       .  S
O1322     Zr1325   2.379       .  S
O1322     Zr1341   2.399       .  S
Zr1323     O1348   2.441       .  S
Zr1323     O1342   2.454       .  S
Zr1323     O1350   2.463       .  S
Zr1323     O1338   2.478       .  S
Zr1323     O1917   2.413       .  S
Zr1323     O1918   2.408       .  S
Zr1323     O1331   2.381       .  S
Zr1323     O1920   2.393       .  S
Zr1324     O1931   2.437   1_554  S
Zr1324     O1336   2.437   1_554  S
Zr1324     O1925   2.420   1_554  S
Zr1324     O1330   2.386   1_554  S
Zr1324     O1919   2.377   1_554  S
Zr1325     O1327   2.436       .  S
Zr1325     O1349   2.438       .  S
Zr1325     O1351   2.383       .  S
Zr1325     O1329   2.399       .  S
Zr1325     O1332   2.388       .  S
Zr1326     O1352   2.434       .  S
Zr1326     O1353   2.435       .  S
Zr1326     O1328   2.440       .  S
Zr1326     O1329   2.400       .  S
Zr1326     O1330   2.394   1_554  S
O1327      H1364   0.990       .  S
O1328      H1359   0.990       .  S
O1328      H1373   0.990       .  S
O1329     Zr1911   2.418   1_554  S
O1330     Zr1911   2.406       .  S
O1330      H1944   0.966       .  S
O1331     Zr1912   2.376       .  S
O1331     Zr1929   2.379       .  S
O1332     Zr1911   2.393   1_554  S
O1332     Zr1341   2.371       .  S
O1332      H1357   0.964       .  S
C1333      C1681   1.495       .  S
C1334      C1656   1.498       .  S
O1336      H1372   0.990   1_556  S
O1337     Zr1912   2.419       .  S
O1337      C1339   1.282       .  A
O1338      C1339   1.293       .  A
C1339      C1695   1.499       .  S
O1340     Zr1341   2.437       .  S
O1340      H1369   0.990       .  S
Zr1341     O1932   2.435       .  S
Zr1341     O1345   2.441       .  S
Zr1341     O1934   2.430   1_554  S
Zr1341     O1919   2.379   1_554  S
O1342      C1347   1.289       .  A
O1343     Zr1912   2.438       .  S
O1343      H1360   0.990       .  S
O1343      H1375   0.990       .  S
O1344     Zr1929   2.436       .  S
O1344      H1361   0.990       .  S
O1345      H1365   0.990       .  S
O1345      H1374   0.989       .  S
O1346     Zr1929   2.427       .  S
O1346      C1347   1.283       .  A
C1347      C1667   1.497       .  S
O1348      H1367   0.990       .  S
O1348      H1371   0.990       .  S
O1349      H1363   0.990       .  S
O1349      H1370   0.990       .  S
O1350      C1354   1.288       .  A
O1351      C1942   1.275       .  A
O1352      H1362   0.990       .  S
O1353      H1366   0.990   1_554  S
C1354      C1788   1.474       .  S
C1354      O1939   1.276       .  A
H1356      O1918   0.966       .  S
Zr1377     O1378   2.436       .  S
Zr1377     O1379   2.444       .  S
Zr1377     O1380   2.418       .  S
Zr1377     O1383   2.421       .  S
Zr1377     O1385   2.379       .  S
Zr1377     O1386   2.377       .  S
Zr1377     O1387   2.410       .  S
Zr1377     O1388   2.402       .  S
O1378      H1434   0.990       .  S
O1378      H1442   0.989       .  S
O1379      C1399   1.286       .  A
O1380      C1401   1.282       .  A
O1381     Zr1391   2.436       .  S
O1381      C1400   1.286       .  A
O1382     Zr1390   2.420       .  S
O1382      C1401   1.283       .  A
O1383      C1400   1.281       .  A
O1384     Zr1392   2.444       .  S
O1384      C1399   1.286       .  A
O1385     Zr1390   2.397       .  S
O1385     Zr1392   2.372       .  S
O1386     Zr1391   2.379       .  S
O1386     Zr1392   2.371       .  S
O1386      H1421   0.966       .  S
O1387     Zr1390   2.394       .  S
O1387     Zr1407   2.402   1_554  S
O1387      H1424   0.966       .  S
O1388     Zr1391   2.385       .  S
O1388     Zr1407   2.405   1_554  S
Zr1389     O1414   2.435       .  S
Zr1389     O1408   2.439       .  S
Zr1389     O1416   2.427       .  S
Zr1389     O1404   2.434       .  S
Zr1389     O1983   2.409       .  S
Zr1389     O1984   2.402       .  S
Zr1389     O1985   2.378       .  S
Zr1389     O1398   2.384       .  S
Zr1390     O1409   2.437       .  S
Zr1390     O1402   2.433       .  S
Zr1390     O1403   2.436       .  S
Zr1390     O1396   2.391       .  S
Zr1390     O1397   2.380       .  S
Zr1391     O1981   2.433   1_554  S
Zr1391     O1415   2.438       .  S
Zr1391     O2005   2.414   1_554  S
Zr1391     O1395   2.397       .  S
Zr1391     O1986   2.397   1_554  S
Zr1392     O1418   2.438       .  S
Zr1392     O1419   2.436       .  S
Zr1392     O1394   2.436       .  S
Zr1392     O1395   2.406       .  S
Zr1392     O1396   2.396       .  S
O1393     Zr1979   2.434       .  S
O1393      H1430   0.990       .  S
O1394      H1425   0.990       .  S
O1394      H1439   0.990       .  S
O1395     Zr1977   2.410   1_554  S
O1396     Zr1977   2.403   1_554  S
O1396      H1422   0.966       .  S
O1397     Zr1977   2.374   1_554  S
O1397     Zr1407   2.372   1_554  S
O1398     Zr1979   2.397       .  S
O1398     Zr1995   2.370       .  S
O1398      H1423   0.966       .  S
C1399      C1639   1.508       .  S
C1401      C1611   1.476       .  S
O1402      H1438   0.990       .  S
O1403      C1405   1.287       .  A
O1404      C1993   1.284       .  A
C1405      C1785   1.480       .  S
C1405      O1992   1.282   1_554  A
O1406     Zr1407   2.437   1_554  S
O1406      H1435   0.990       .  S
Zr1407     O1410   2.435       .  S
Zr1407     O1999   2.437       .  S
Zr1407     O2000   2.449       .  S
Zr1407     O1986   2.371       .  S
O1408      C1413   1.285       .  A
O1409      H1426   0.990       .  S
O1409      H1441   0.990       .  S
O1410      H2015   0.990       .  S
O1411     Zr1995   2.438       .  S
O1411      H1431   0.990       .  S
O1411      H1440   0.990       .  S
O1412     Zr1995   2.443       .  S
O1412      C1413   1.286       .  A
C1413      C1597   1.510       .  S
O1414      H1433   0.990       .  S
O1414      H2025   0.989       .  S
O1415      H2017   0.990   1_554  S
O1415      H1436   0.990       .  S
O1416      C1420   1.283       .  A
O1417     Zr1979   2.428       .  S
O1417      C1420   1.285       .  A
O1418      H1428   0.990       .  S
O1419      H1432   0.990       .  S
C1420      C1628   1.481       .  S
H1427      O1998   0.990       .  S
H1429      O2003   0.990       .  S
H1437      O2002   0.989       .  S
Zr1443     O1444   2.436       .  S
Zr1443     O1445   2.414       .  S
Zr1443     O1446   2.457       .  S
Zr1443     O1449   2.425       .  S
Zr1443     O1451   2.375       .  S
Zr1443     O2040   2.385       .  S
Zr1443     O2041   2.394       .  S
Zr1443     O2042   2.403       .  S
O1444      H1500   0.990       .  S
O1444      H1508   0.989       .  S
O1445      C1465   1.281       .  A
O1446      C1467   1.288       .  A
O1447     Zr1457   2.400       .  S
O1447      C1466   1.279       .  A
O1448     Zr2044   2.430       .  S
O1448      C1467   1.284       .  A
O1449      C2054   1.282       .  A
O1450     Zr2046   2.427       .  S
O1450      C1465   1.283       .  A
O1451     Zr2044   2.388       .  S
O1451     Zr2046   2.384       .  S
O1452     Zr2031   2.386   1_554  S
O1452     Zr1457   2.384       .  S
O1452     Zr1458   2.361   1_554  S
O1452      H1487   0.965       .  S
O1453     Zr2031   2.389   1_554  S
O1453     Zr1456   2.385   1_554  S
O1453     Zr1473   2.392       .  S
O1453      H1490   0.966       .  S
O1454     Zr2031   2.398   1_554  S
O1454     Zr1457   2.397       .  S
O1454     Zr1473   2.384       .  S
Zr1455     O1480   2.438       .  S
Zr1455     O1474   2.421       .  S
Zr1455     O1482   2.444       .  S
Zr1455     O1470   2.426       .  S
Zr1455     O1461   2.394       .  S
Zr1455     O1462   2.407       .  S
Zr1455     O1463   2.380       .  S
Zr1455     O1464   2.375       .  S
Zr1456     O1475   2.436   1_556  S
Zr1456     O2056   2.435       .  S
Zr1456     O2036   2.433       .  S
Zr1456     O1469   2.401   1_556  S
Zr1456     O2039   2.384       .  S
Zr1456     O1462   2.404   1_556  S
Zr1456     O1463   2.385   1_556  S
Zr1457     O1459   2.433       .  S
Zr1457     O1481   2.436       .  S
Zr1457     O1483   2.433       .  S
Zr1457     O1461   2.382       .  S
Zr1457     O1464   2.378       .  S
Zr1458     O1484   2.438   1_556  S
Zr1458     O1485   2.437   1_556  S
Zr1458     O2048   2.432       .  S
Zr1458     O2038   2.434       .  S
Zr1458     O2039   2.380       .  S
Zr1458     O1461   2.398   1_556  S
Zr1458     O1462   2.396   1_556  S
O1459      H1496   0.990       .  S
O1460     Zr2046   2.435       .  S
O1460      H1491   0.990       .  S
O1460      H1505   0.990       .  S
O1462      H1488   0.966       .  S
O1463     Zr1473   2.373       .  S
O1464     Zr1473   2.382       .  S
O1464      H1489   0.966       .  S
C1465      C1558   1.492       .  S
C1466      C1786   1.459       .  S
C1466      O2037   1.283   1_554  A
C1467      C1583   1.499       .  S
O1468     Zr2044   2.434       .  S
O1468      H1504   0.990       .  S
O1469      C1471   1.278       .  A
O1470      C1471   1.282       .  A
O1472     Zr1473   2.436       .  S
O1472      H1501   0.990       .  S
Zr1473     O1476   2.437       .  S
Zr1473     O1477   2.435       .  S
Zr1473     O1478   2.413       .  S
O1474      C1479   1.283       .  A
O1475      H2080   0.990       .  S
O1475      H1507   0.990   1_554  S
O1476      H1493   0.991       .  S
O1477      H1497   0.990       .  S
O1477      H1506   0.990       .  S
O1478      C1479   1.280       .  A
C1479      C1569   1.487       .  S
O1480      H1499   0.990       .  S
O1480      H1503   0.990       .  S
O1481      H1495   0.990       .  S
O1481      H1502   0.990       .  S
O1482      C1486   1.287       .  A
O1483      C1486   1.285       .  A
O1484      H2082   0.990   1_554  S
O1485      H1498   0.990       .  S
C1486      C1541   1.497       .  S
H1492      O2063   0.990       .  S
H1494      O2072   0.990       .  S
C1509      C1514   1.409       .  A
C1509      C1751   1.513       .  S
C1510      C1511   1.411       .  A
C1510      C1684   1.500       .  S
C1511      C1512   1.406       .  A
C1511      H1516   1.084       .  S
C1512      C1698   1.510       .  S
C1513      C1514   1.413       .  A
C1513      C1737   1.505       .  S
C1514      H1515   1.084       .  S
C1517      C1522   1.400       .  A
C1517      C1642   1.500       .  S
C1518      C1519   1.400       .  A
C1518      C1572   1.475       .  S
C1519      C1520   1.394       .  A
C1519      H1524   1.085       .  S
C1520      C1586   1.495       .  S
C1521      C1522   1.406       .  A
C1521      C1625   1.482       .  S
C1522      H1523   1.084       .  S
C1525      C1526   1.415       .  A
C1525      C1530   1.404       .  A
C1525      C1614   1.478       .  S
C1526      C1527   1.397       .  A
C1526      C1544   1.496       .  S
C1527      C1528   1.402       .  A
C1527      H1532   1.084       .  S
C1528      C1529   1.414       .  A
C1528      C1555   1.478       .  S
C1529      C1530   1.398       .  A
C1529      C1600   1.497       .  S
C1530      H1531   1.084       .  S
C1533      C1534   1.419       .  A
C1533      C1538   1.411       .  A
C1533      C1723   1.504       .  S
C1534      C1535   1.406       .  A
C1534      C1653   1.507       .  S
C1535      C1536   1.412       .  A
C1535      H1540   1.084       .  S
C1536      C1537   1.426       .  A
C1536      C1670   1.504       .  S
C1537      C1538   1.411       .  A
C1537      C1712   1.514       .  S
C1538      H1539   1.084       .  S
C1541      C1542   1.416       .  A
C1541      C1546   1.416       .  A
C1542      C1543   1.412       .  A
C1542      C1547   1.451       .  S
C1543      C1544   1.410       .  A
C1543      C1550   1.450       .  S
C1544      C1545   1.412       .  A
C1545      C1546   1.416       .  A
C1545      C1548   1.449       .  S
C1546      C1549   1.450       .  S
C1547      N1554   1.157       .  T
C1548      N1553   1.157       .  T
C1549      N1551   1.157       .  T
C1550      N1552   1.157       .  T
C1555      C1556   1.406       .  A
C1555      C1560   1.405       .  A
C1556      C1557   1.410       .  A
C1556      C1561   1.451       .  S
C1557      C1558   1.420       .  A
C1557      C1564   1.450       .  S
C1558      C1559   1.422       .  A
C1559      C1560   1.405       .  A
C1559      C1562   1.453       .  S
C1560      C1563   1.452       .  S
C1561      N1568   1.157       .  T
C1562      N1567   1.157       .  T
C1563      N1565   1.157       .  T
C1564      N1566   1.157       .  T
C1569      C1570   1.420       .  A
C1569      C1574   1.419       .  A
C1570      C1571   1.408       .  A
C1570      C1575   1.450       .  S
C1571      C1572   1.407       .  A
C1571      C1578   1.452       .  S
C1572      C1573   1.407       .  A
C1573      C1574   1.404       .  A
C1574      C1577   1.452       .  S
C1575      N1582   1.157       .  T
C1576      N1581   1.157       .  T
C1577      N1579   1.157       .  T
C1578      N1580   1.157       .  T
C1583      C1584   1.418       .  A
C1583      C1588   1.418       .  A
C1584      C1585   1.414       .  A
C1584      C1589   1.451       .  S
C1585      C1586   1.411       .  A
C1585      C1592   1.450       .  S
C1586      C1587   1.409       .  A
C1587      C1588   1.413       .  A
C1588      C1591   1.449       .  S
C1589      N1596   1.157       .  T
C1590      N1595   1.157       .  T
C1591      N1593   1.157       .  T
C1592      N1594   1.157       .  T
C1597      C1598   1.425       .  A
C1597      C1602   1.423       .  A
C1598      C1599   1.416       .  A
C1598      C1603   1.450       .  S
C1599      C1600   1.408       .  A
C1599      C1606   1.450       .  S
C1600      C1601   1.408       .  A
C1601      C1602   1.415       .  A
C1601      C1604   1.451       .  S
C1602      C1605   1.449       .  S
C1603      N1610   1.157       .  T
C1604      N1609   1.157       .  T
C1605      N1607   1.157       .  T
C1606      N1608   1.157       .  T
C1611      C1612   1.413       .  A
C1611      C1616   1.413       .  A
C1612      C1613   1.406       .  A
C1612      C1617   1.451       .  S
C1613      C1614   1.409       .  A
C1613      C1620   1.450       .  S
C1614      C1615   1.410       .  A
C1615      C1616   1.406       .  A
C1615      C1618   1.451       .  S
C1616      C1619   1.452       .  S
C1617      N1624   1.157       .  T
C1618      N1623   1.157       .  T
C1619      N1621   1.157       .  T
C1620      N1622   1.157       .  T
C1625      C1626   1.409       .  A
C1625      C1630   1.410       .  A
C1626      C1627   1.408       .  A
C1626      C1631   1.450       .  S
C1627      C1628   1.414       .  A
C1627      C1634   1.450       .  S
C1628      C1629   1.414       .  A
C1629      C1630   1.409       .  A
C1629      C1632   1.452       .  S
C1630      C1633   1.451       .  S
C1631      N1638   1.157       .  T
C1632      N1637   1.157       .  T
C1633      N1635   1.157       .  T
C1634      N1636   1.157       .  T
C1639      C1640   1.421       .  A
C1639      C1644   1.421       .  A
C1640      C1641   1.414       .  A
C1640      C1645   1.450       .  S
C1641      C1642   1.410       .  A
C1641      C1648   1.450       .  S
C1642      C1643   1.411       .  A
C1643      C1644   1.417       .  A
C1643      C1646   1.450       .  S
C1644      C1647   1.450       .  S
C1645      N1652   1.157       .  T
C1647      N1649   1.157       .  T
C1648      N1650   1.157       .  T
C1653      C1654   1.416       .  A
C1653      C1658   1.415       .  A
C1654      C1655   1.419       .  A
C1654      C1659   1.448       .  S
C1655      C1656   1.413       .  A
C1655      C1662   1.449       .  S
C1656      C1657   1.416       .  A
C1657      C1658   1.414       .  A
C1657      C1660   1.452       .  S
C1658      C1661   1.450       .  S
C1659      N1666   1.157       .  T
C1660      N1665   1.157       .  T
C1661      N1663   1.157       .  T
C1662      N1664   1.157       .  T
C1667      C1668   1.414       .  A
C1667      C1672   1.416       .  A
C1668      C1669   1.415       .  A
C1668      C1673   1.451       .  S
C1669      C1670   1.415       .  A
C1669      C1676   1.448       .  S
C1670      C1671   1.417       .  A
C1671      C1672   1.415       .  A
C1671      C1674   1.452       .  S
C1672      C1675   1.452       .  S
C1673      N1680   1.157       .  T
C1674      N1679   1.157       .  T
C1675      N1677   1.157       .  T
C1676      N1678   1.157       .  T
C1681      C1682   1.413       .  A
C1681      C1686   1.418       .  A
C1682      C1683   1.414       .  A
C1682      C1687   1.451       .  S
C1683      C1684   1.415       .  A
C1683      C1690   1.448       .  S
C1684      C1685   1.415       .  A
C1685      C1686   1.413       .  A
C1685      C1688   1.452       .  S
C1686      C1689   1.452       .  S
C1687      N1694   1.157       .  T
C1688      N1693   1.158       .  T
C1689      N1691   1.157       .  T
C1690      N1692   1.157   1_655  T
C1695      C1696   1.414       .  A
C1695      C1700   1.414       .  A
C1696      C1697   1.420       .  A
C1696      C1701   1.450       .  S
C1697      C1698   1.417       .  A
C1697      C1704   1.448       .  S
C1698      C1699   1.416       .  A
C1699      C1700   1.415       .  A
C1699      C1702   1.450       .  S
C1700      C1703   1.451       .  S
C1701      N1708   1.157       .  T
C1702      N1707   1.157       .  T
C1703      N1705   1.157       .  T
C1709      C1710   1.417       .  A
C1709      C1714   1.413       .  A
C1710      C1711   1.416       .  A
C1710      C1715   1.452       .  S
C1711      C1712   1.418       .  A
C1711      C1718   1.451       .  S
C1712      C1713   1.418       .  A
C1713      C1714   1.421       .  A
C1713      C1716   1.447       .  S
C1714      C1717   1.450       .  S
C1715      N1722   1.157       .  T
C1716      N1721   1.157       .  T
C1717      N1719   1.157       .  T
C1718      N1720   1.157       .  T
C1723      C1724   1.415       .  A
C1723      C1728   1.413       .  A
C1724      C1725   1.417       .  A
C1724      C1729   1.449       .  S
C1725      C1726   1.416       .  A
C1725      C1732   1.452       .  S
C1726      C1727   1.419       .  A
C1727      C1728   1.416       .  A
C1727      C1730   1.450       .  S
C1728      C1731   1.451       .  S
C1729      N1736   1.157       .  T
C1730      N1735   1.157       .  T
C1731      N1733   1.157       .  T
C1732      N1734   1.157       .  T
C1737      C1738   1.416       .  A
C1737      C1742   1.418       .  A
C1738      C1739   1.413       .  A
C1739      C1740   1.415       .  A
C1739      C1746   1.451       .  S
C1740      C1741   1.412       .  A
C1741      C1742   1.416       .  A
C1741      C1744   1.451       .  S
C1742      C1745   1.449       .  S
C1743      N1750   1.157       .  T
C1744      N1749   1.157       .  T
C1745      N1747   1.157       .  T
C1746      N1748   1.157       .  T
C1751      C1752   1.419       .  A
C1751      C1756   1.417       .  A
C1752      C1753   1.421       .  A
C1752      C1757   1.448       .  S
C1753      C1754   1.413       .  A
C1753      C1760   1.451       .  S
C1754      C1755   1.414       .  A
C1755      C1756   1.415       .  A
C1755      C1758   1.452       .  S
C1756      C1759   1.450       .  S
C1757      N1764   1.157       .  T
C1758      N1763   1.157       .  T
C1759      N1761   1.157       .  T
C1760      N1762   1.158       .  T
N1765      C1770   1.350       .  A
N1765      C1769   1.349   1_554  A
N1765      H1797   1.038       .  S
N1766      C1773   1.355   1_556  A
N1766      C1774   1.351       .  A
N1767      C1772   1.360       .  A
N1767      C1771   1.354       .  A
N1767      H1798   1.029       .  S
N1768      C1775   1.345       .  A
N1768      C1776   1.348       .  A
C1769      C1777   1.384       .  A
C1769      C1785   1.404   1_556  A
C1770      C1786   1.411       .  A
C1770      C1778   1.390   1_554  A
C1771      C1779   1.388       .  A
C1771      C1788   1.424       .  A
C1772      C1787   1.430       .  A
C1772      C1780   1.388       .  A
C1773      C1785   1.412       .  A
C1773      C1781   1.384       .  A
C1774      C1782   1.389   1_556  A
C1775      C1783   1.386       .  A
C1776      C1784   1.386       .  A
C1776      C1787   1.411       .  A
C1777      C1778   1.372       .  A
C1777      H1789   1.083       .  S
C1778      H1790   1.082       .  S
C1779      C1780   1.367       .  A
C1779      H1791   1.080       .  S
C1780      H1792   1.080       .  S
C1781      C1782   1.377       .  A
C1781      H1793   1.082       .  S
C1782      H1794   1.083       .  S
C1783      C1784   1.373       .  A
C1783      H1795   1.082       .  S
C1784      H1796   1.080       .  S
C1787      C1876   1.488       .  S
N1799      C1803   1.355       .  A
N1799      H1831   1.030       .  S
N1800      C1807   1.351   1_565  A
N1800      C1808   1.355       .  A
N1801      C1805   1.349       .  A
N1801      H1832   1.039       .  S
N1802      C1809   1.345   1_565  A
N1802      C1810   1.345       .  A
C1803      C1811   1.389       .  A
C1803      C1819   1.424       .  A
C1804      C1820   1.426       .  A
C1804      C1812   1.387       .  A
C1805      C1813   1.385       .  A
C1805      C1822   1.404       .  A
C1806      C1821   1.410       .  A
C1806      C1814   1.389       .  A
C1807      C1819   1.419       .  A
C1807      C1815   1.389       .  A
C1808      C1822   1.413       .  A
C1808      C1816   1.383       .  A
C1809      C1817   1.387       .  A
C1809      C1820   1.408       .  A
C1810      C1818   1.386       .  A
C1810      C1821   1.405       .  A
C1811      H1823   1.083       .  S
C1812      H1824   1.082       .  S
C1813      H1825   1.083       .  S
C1814      H1826   1.083       .  S
C1815      C1816   1.377   1_545  A
C1815      H1827   1.082       .  S
C1816      H1828   1.082       .  S
C1817      C1818   1.373   1_545  A
C1817      H1829   1.081       .  S
C1818      H1830   1.082       .  S
C1819      C1923   1.474       .  S
C1820      C1857   1.482       .  S
C1821      C2059   1.463       .  S
C1822      C1988   1.483       .  S
Zr1833     O1834   2.437       .  S
Zr1833     O1835   2.452       .  S
Zr1833     O1839   2.476       .  S
Zr1833     O1842   2.386       .  S
O1834      H1890   0.990       .  S
O1835      C1855   1.288       .  A
O1836      C1857   1.291       .  A
O1837     Zr1847   2.411       .  S
O1837      C1856   1.280       .  A
O1838     Zr1846   2.387       .  S
O1838      C1857   1.277       .  A
O1839      C1856   1.293       .  A
O1840      C1855   1.286       .  A
O1841     Zr1846   2.397       .  S
O1841     Zr1848   2.373       .  S
O1842     Zr1847   2.369       .  S
O1842      H1877   0.965       .  S
O1843     Zr1846   2.398       .  S
O1843     Zr1863   2.406       .  S
O1843      H1880   0.966       .  S
O1844     Zr1863   2.402       .  S
Zr1845     O1870   2.437       .  S
Zr1845     O1864   2.453       .  S
Zr1845     O1872   2.482       .  S
Zr1845     O1860   2.483       .  S
Zr1845     O1851   2.419       .  S
Zr1845     O1852   2.417       .  S
Zr1845     O1853   2.384       .  S
Zr1845     O1854   2.393       .  S
Zr1846     O1865   2.436       .  S
Zr1846     O1858   2.435       .  S
Zr1846     O1859   2.415       .  S
Zr1846     O1852   2.387       .  S
Zr1846     O1853   2.372       .  S
Zr1847     O1871   2.435       .  S
Zr1848     O1875   2.437       .  S
Zr1848     O1850   2.441       .  S
Zr1848     O1851   2.410       .  S
Zr1848     O1852   2.400       .  S
O1850      H1895   0.990       .  S
O1852      H1878   0.965       .  S
O1853     Zr1863   2.375       .  S
O1854     Zr1863   2.372       .  S
O1854      H1879   0.965       .  S
C1855      C2328   1.498       .  S
C1856      C2297   1.498       .  S
O1858      H1894   0.990       .  S
O1859      C1861   1.281       .  A
O1860      C1861   1.294       .  A
C1861      C2342   1.499       .  S
O1862     Zr1863   2.436       .  S
O1862      H1891   0.990       .  S
Zr1863     O1866   2.435       .  S
Zr1863     O1867   2.440       .  S
Zr1863     O1868   2.446       .  S
O1864      C1869   1.289       .  A
O1865      H1882   0.990       .  S
O1865      H1897   0.990       .  S
O1866      H1883   0.990       .  S
O1867      H1887   0.990       .  S
O1867      H1896   0.990       .  S
O1868      C1869   1.287       .  A
C1869      C2314   1.505       .  S
O1870      H1889   0.990       .  S
O1870      H1893   0.990       .  S
O1871      H1885   0.990       .  S
O1871      H1892   0.990       .  S
O1872      C1876   1.294       .  A
O1873      C1876   1.277       .  A
O1874      H1884   0.990       .  S
O1875      H1888   0.990       .  S
Zr1899     O1900   2.440       .  S
Zr1899     O1901   2.453       .  S
Zr1899     O1902   2.471       .  S
Zr1899     O1905   2.475       .  S
Zr1899     O1907   2.390       .  S
Zr1899     O1908   2.384       .  S
Zr1899     O1909   2.417       .  S
Zr1899     O1910   2.406       .  S
O1900      H1956   0.990       .  S
O1900      H1964   0.990       .  S
O1901      C1921   1.288       .  A
O1902      C1923   1.290       .  A
O1903     Zr1913   2.423       .  S
O1903      C1922   1.283       .  A
O1904     Zr1912   2.379       .  S
O1904      C1923   1.275       .  A
O1905      C1922   1.292       .  A
O1906     Zr1914   2.423       .  S
O1906      C1921   1.282       .  A
O1907     Zr1912   2.398       .  S
O1907     Zr1914   2.374       .  S
O1908     Zr1913   2.377       .  S
O1908     Zr1914   2.378       .  S
O1908      H1943   0.965       .  S
O1909     Zr1912   2.401       .  S
O1909     Zr1929   2.391       .  S
O1909      H1946   0.966       .  S
O1910     Zr1913   2.383       .  S
O1910     Zr1929   2.400       .  S
Zr1911     O1936   2.440       .  S
Zr1911     O1930   2.453       .  S
Zr1911     O1938   2.468       .  S
Zr1911     O1926   2.483       .  S
Zr1911     O1919   2.380       .  S
Zr1912     O1924   2.436       .  S
Zr1912     O1918   2.386       .  S
Zr1913     O1915   2.436       .  S
Zr1913     O1937   2.440       .  S
Zr1913     O1939   2.385       .  S
Zr1913     O1917   2.395       .  S
Zr1913     O1920   2.392       .  S
Zr1914     O1940   2.435       .  S
Zr1914     O1941   2.435       .  S
Zr1914     O1916   2.439       .  S
Zr1914     O1917   2.399       .  S
Zr1914     O1918   2.395       .  S
O1915      H1952   0.990       .  S
O1916      H1947   0.990       .  S
O1916      H1961   0.990       .  S
O1920     Zr1929   2.377       .  S
O1920      H1945   0.965       .  S
C1921      C2269   1.496       .  S
C1922      C2244   1.500       .  S
O1924      H1960   0.990       .  S
O1925      C1927   1.282       .  A
O1926      C1927   1.294       .  A
C1927      C2283   1.502       .  S
O1928     Zr1929   2.437       .  S
O1928      H1957   0.990       .  S
Zr1929     O1933   2.440       .  S
O1930      C1935   1.289       .  A
O1931      H1948   0.990       .  S
O1931      H1963   0.990       .  S
O1932      H1949   0.990   1_554  S
O1933      H1953   0.990       .  S
O1933      H1962   0.990       .  S
O1934      C1935   1.284       .  A
C1935      C2255   1.500       .  S
O1936      H1955   0.990       .  S
O1936      H1959   0.990       .  S
O1937      H1951   0.990       .  S
O1937      H1958   0.989       .  S
O1938      C1942   1.290   1_556  A
O1940      H1950   0.990       .  S
O1941      H1954   0.990       .  S
Zr1965     O1966   2.436       .  S
Zr1965     O1967   2.447       .  S
Zr1965     O1968   2.419       .  S
Zr1965     O1971   2.422       .  S
Zr1965     O1973   2.381       .  S
Zr1965     O1974   2.379       .  S
Zr1965     O1975   2.409       .  S
Zr1965     O1976   2.403       .  S
O1966      H2022   0.990       .  S
O1966      H2030   0.989       .  S
O1967      C1987   1.287       .  A
O1968      C1989   1.282       .  A
O1969     Zr1979   2.443       .  S
O1969      C1988   1.288       .  A
O1970     Zr1978   2.423       .  S
O1970      C1989   1.283       .  A
O1971      C1988   1.281       .  A
O1972     Zr1980   2.440       .  S
O1972      C1987   1.286       .  A
O1973     Zr1978   2.395       .  S
O1973     Zr1980   2.377       .  S
O1974     Zr1979   2.379       .  S
O1974     Zr1980   2.372       .  S
O1974      H2009   0.966       .  S
O1975     Zr1978   2.396       .  S
O1975     Zr1995   2.404       .  S
O1975      H2012   0.966       .  S
O1976     Zr1979   2.389       .  S
O1976     Zr1995   2.403       .  S
Zr1977     O2002   2.437       .  S
Zr1977     O1996   2.447       .  S
Zr1977     O2004   2.418       .  S
Zr1977     O1992   2.427       .  S
Zr1977     O1986   2.382       .  S
Zr1978     O1997   2.436       .  S
Zr1978     O1990   2.433       .  S
Zr1978     O1991   2.440       .  S
Zr1978     O1984   2.388       .  S
Zr1978     O1985   2.382       .  S
Zr1979     O2003   2.437       .  S
Zr1979     O1983   2.396       .  S
Zr1980     O2006   2.435       .  S
Zr1980     O2007   2.438       .  S
Zr1980     O1982   2.435       .  S
Zr1980     O1983   2.401       .  S
Zr1980     O1984   2.395       .  S
O1981      H2018   0.990       .  S
O1982      H2013   0.990       .  S
O1982      H2027   0.990       .  S
O1984      H2010   0.966       .  S
O1985     Zr1995   2.372       .  S
O1986      H2011   0.966       .  S
C1987      C2227   1.511       .  S
C1989      C2199   1.477       .  S
O1990      H2026   0.990       .  S
O1991      C1993   1.287       .  A
O1994     Zr1995   2.437       .  S
O1994      H2023   0.990       .  S
Zr1995     O1998   2.435       .  S
O1996      C2001   1.287       .  A
O1997      H2014   0.990       .  S
O1997      H2029   0.990       .  S
O1999      H2019   0.990       .  S
O1999      H2028   0.990       .  S
O2000      C2001   1.287       .  A
C2001      C2185   1.518       .  S
O2002      H2021   0.990       .  S
O2003      H2024   0.990       .  S
O2004      C2008   1.282       .  A
O2005      C2008   1.282       .  A
O2006      H2016   0.990       .  S
O2007      H2020   0.990       .  S
C2008      C2216   1.474       .  S
Zr2031     O2032   2.435       .  S
Zr2031     O2033   2.403       .  S
Zr2031     O2034   2.455       .  S
Zr2031     O2037   2.424       .  S
Zr2031     O2039   2.378       .  S
O2032      H2088   0.990       .  S
O2032      H2096   0.989       .  S
O2033      C2053   1.279       .  A
O2034      C2055   1.289       .  A
O2035     Zr2045   2.404       .  S
O2035      C2054   1.279       .  A
O2036      C2055   1.285       .  A
O2038      C2053   1.285       .  A
O2040     Zr2045   2.391       .  S
O2040     Zr2046   2.368       .  S
O2040      H2075   0.965       .  S
O2041     Zr2044   2.391       .  S
O2041     Zr2061   2.395       .  S
O2041      H2078   0.966       .  S
O2042     Zr2045   2.398       .  S
O2042     Zr2061   2.394       .  S
Zr2043     O2068   2.437       .  S
Zr2043     O2062   2.409       .  S
Zr2043     O2070   2.441       .  S
Zr2043     O2058   2.427       .  S
Zr2043     O2049   2.393       .  S
Zr2043     O2050   2.398       .  S
Zr2043     O2051   2.383       .  S
Zr2043     O2052   2.379       .  S
Zr2044     O2063   2.437       .  S
Zr2044     O2057   2.406       .  S
Zr2044     O2050   2.400       .  S
Zr2044     O2051   2.388       .  S
Zr2045     O2047   2.434       .  S
Zr2045     O2069   2.437       .  S
Zr2045     O2071   2.446       .  S
Zr2045     O2049   2.386       .  S
Zr2045     O2052   2.375       .  S
Zr2046     O2072   2.437       .  S
Zr2046     O2073   2.436       .  S
Zr2046     O2049   2.397       .  S
Zr2046     O2050   2.389       .  S
O2047      H2084   0.990       .  S
O2048      H2079   0.990       .  S
O2048      H2093   0.990       .  S
O2050      H2076   0.966       .  S
O2051     Zr2061   2.374       .  S
O2052     Zr2061   2.380       .  S
O2052      H2077   0.966       .  S
C2053      C2146   1.485       .  S
C2055      C2171   1.499       .  S
O2056      H2092   0.990       .  S
O2057      C2059   1.279       .  A
O2058      C2059   1.282       .  A
O2060     Zr2061   2.438       .  S
O2060      H2089   0.990       .  S
Zr2061     O2064   2.437       .  S
Zr2061     O2065   2.437       .  S
Zr2061     O2066   2.431       .  S
O2062      C2067   1.281       .  A
O2063      H2095   0.990       .  S
O2064      H2081   0.990       .  S
O2065      H2085   0.990       .  S
O2065      H2094   0.989       .  S
O2066      C2067   1.284       .  A
C2067      C2157   1.488       .  S
O2068      H2087   0.990       .  S
O2068      H2091   0.990       .  S
O2069      H2083   0.990       .  S
O2069      H2090   0.990       .  S
O2070      C2074   1.287       .  A
O2071      C2074   1.287       .  A
O2073      H2086   0.990       .  S
C2074      C2129   1.499       .  S
C2097      C2102   1.411       .  A
C2097      C2339   1.512       .  S
C2098      C2099   1.410       .  A
C2098      C2272   1.499       .  S
C2099      C2100   1.407       .  A
C2099      H2104   1.084       .  S
C2100      C2286   1.510       .  S
C2101      C2102   1.411       .  A
C2101      C2325   1.506       .  S
C2102      H2103   1.084       .  S
C2105      C2110   1.399       .  A
C2105      C2230   1.499       .  S
C2106      C2107   1.403       .  A
C2106      C2160   1.475       .  S
C2107      C2108   1.398       .  A
C2107      H2112   1.084       .  S
C2108      C2174   1.498       .  S
C2109      C2110   1.403       .  A
C2109      C2213   1.476       .  S
C2110      H2111   1.085       .  S
C2113      C2114   1.416       .  A
C2113      C2118   1.406       .  A
C2113      C2202   1.476       .  S
C2114      C2115   1.397       .  A
C2114      C2132   1.502       .  S
C2115      C2116   1.404       .  A
C2115      H2120   1.085       .  S
C2116      C2117   1.415       .  A
C2116      C2143   1.475       .  S
C2117      C2118   1.398       .  A
C2117      C2188   1.503       .  S
C2118      H2119   1.084       .  S
C2121      C2122   1.422       .  A
C2121      C2126   1.410       .  A
C2121      C2311   1.508       .  S
C2122      C2123   1.410       .  A
C2122      C2241   1.511       .  S
C2123      C2124   1.412       .  A
C2123      H2128   1.084       .  S
C2124      C2125   1.424       .  A
C2124      C2258   1.509       .  S
C2125      C2126   1.412       .  A
C2125      C2300   1.509       .  S
C2126      H2127   1.084       .  S
C2129      C2130   1.416       .  A
C2129      C2134   1.417       .  A
C2130      C2131   1.416       .  A
C2130      C2135   1.451       .  S
C2131      C2132   1.413       .  A
C2131      C2138   1.450       .  S
C2132      C2133   1.412       .  A
C2133      C2134   1.416       .  A
C2133      C2136   1.449       .  S
C2134      C2137   1.450       .  S
C2135      N2142   1.157       .  T
C2136      N2141   1.157       .  T
C2137      N2139   1.157       .  T
C2138      N2140   1.157       .  T
C2143      C2144   1.408       .  A
C2143      C2148   1.407       .  A
C2144      C2145   1.407       .  A
C2144      C2149   1.452       .  S
C2145      C2146   1.415       .  A
C2145      C2152   1.450       .  S
C2146      C2147   1.420       .  A
C2147      C2148   1.406       .  A
C2147      C2150   1.452       .  S
C2148      C2151   1.452       .  S
C2149      N2156   1.157       .  T
C2150      N2155   1.157       .  T
C2151      N2153   1.157       .  T
C2152      N2154   1.157       .  T
C2157      C2158   1.419       .  A
C2157      C2162   1.420       .  A
C2158      C2159   1.409       .  A
C2158      C2163   1.450       .  S
C2159      C2160   1.406       .  A
C2159      C2166   1.451       .  S
C2160      C2161   1.405       .  A
C2161      C2162   1.403       .  A
C2162      C2165   1.452       .  S
C2163      N2170   1.157       .  T
C2164      N2169   1.157       .  T
C2165      N2167   1.157       .  T
C2166      N2168   1.157       .  T
C2171      C2172   1.418       .  A
C2171      C2176   1.416       .  A
C2172      C2173   1.416       .  A
C2172      C2177   1.451       .  S
C2173      C2174   1.412       .  A
C2173      C2180   1.450       .  S
C2174      C2175   1.410       .  A
C2175      C2176   1.413       .  A
C2176      C2179   1.449       .  S
C2177      N2184   1.157       .  T
C2178      N2183   1.157       .  T
C2179      N2181   1.157       .  T
C2180      N2182   1.157       .  T
C2185      C2186   1.426       .  A
C2185      C2190   1.424       .  A
C2186      C2187   1.418       .  A
C2186      C2191   1.451       .  S
C2187      C2188   1.410       .  A
C2187      C2194   1.451       .  S
C2188      C2189   1.409       .  A
C2189      C2190   1.418       .  A
C2189      C2192   1.450       .  S
C2190      C2193   1.450       .  S
C2191      N2198   1.157       .  T
C2192      N2197   1.157       .  T
C2193      N2195   1.157       .  T
C2194      N2196   1.157       .  T
C2199      C2200   1.413       .  A
C2199      C2204   1.413       .  A
C2200      C2201   1.405       .  A
C2200      C2205   1.450       .  S
C2201      C2202   1.408       .  A
C2201      C2208   1.450       .  S
C2202      C2203   1.409       .  A
C2203      C2204   1.406       .  A
C2203      C2206   1.450       .  S
C2204      C2207   1.451       .  S
C2205      N2212   1.157       .  T
C2206      N2211   1.157       .  T
C2207      N2209   1.157       .  T
C2208      N2210   1.157       .  T
C2213      C2214   1.407       .  A
C2213      C2218   1.409       .  A
C2214      C2215   1.404       .  A
C2214      C2219   1.450       .  S
C2215      C2216   1.412       .  A
C2215      C2222   1.450       .  S
C2216      C2217   1.414       .  A
C2217      C2218   1.406       .  A
C2217      C2220   1.452       .  S
C2218      C2221   1.450       .  S
C2219      N2226   1.157       .  T
C2220      N2225   1.157       .  T
C2221      N2223   1.157       .  T
C2222      N2224   1.157       .  T
C2227      C2228   1.423       .  A
C2227      C2232   1.422       .  A
C2228      C2229   1.415       .  A
C2228      C2233   1.451       .  S
C2229      C2230   1.410       .  A
C2229      C2236   1.450       .  S
C2230      C2231   1.410       .  A
C2231      C2232   1.417       .  A
C2231      C2234   1.450       .  S
C2232      C2235   1.450       .  S
C2233      N2240   1.157       .  T
C2235      N2237   1.157       .  T
C2236      N2238   1.157       .  T
C2241      C2242   1.417       .  A
C2241      C2246   1.416       .  A
C2242      C2243   1.420       .  A
C2242      C2247   1.449       .  S
C2243      C2244   1.414       .  A
C2243      C2250   1.449       .  S
C2244      C2245   1.415       .  A
C2245      C2246   1.415       .  A
C2245      C2248   1.451       .  S
C2246      C2249   1.451       .  S
C2247      N2254   1.157       .  T
C2248      N2253   1.157       .  T
C2249      N2251   1.157       .  T
C2250      N2252   1.157       .  T
C2255      C2256   1.414       .  A
C2255      C2260   1.416       .  A
C2256      C2257   1.418       .  A
C2256      C2261   1.452       .  S
C2257      C2258   1.417       .  A
C2257      C2264   1.448       .  S
C2258      C2259   1.417       .  A
C2259      C2260   1.415       .  A
C2259      C2262   1.451       .  S
C2260      C2263   1.452       .  S
C2261      N2268   1.157       .  T
C2262      N2267   1.157       .  T
C2263      N2265   1.157       .  T
C2264      N2266   1.157       .  T
C2269      C2270   1.414       .  A
C2269      C2274   1.418       .  A
C2270      C2271   1.415       .  A
C2270      C2275   1.452       .  S
C2271      C2272   1.415       .  A
C2271      C2278   1.448       .  S
C2272      C2273   1.413       .  A
C2273      C2274   1.413       .  A
C2273      C2276   1.452       .  S
C2274      C2277   1.452       .  S
C2275      N2282   1.158       .  T
C2276      N2281   1.157       .  T
C2277      N2279   1.157       .  T
C2278      N2280   1.157       .  T
C2283      C2284   1.415       .  A
C2283      C2288   1.417       .  A
C2284      C2285   1.420       .  A
C2284      C2289   1.449       .  S
C2285      C2286   1.416       .  A
C2285      C2292   1.449       .  S
C2286      C2287   1.415       .  A
C2287      C2288   1.416       .  A
C2287      C2290   1.451       .  S
C2288      C2291   1.451       .  S
C2289      N2296   1.157       .  T
C2290      N2295   1.157       .  T
C2291      N2293   1.157       .  T
C2297      C2298   1.416       .  A
C2297      C2302   1.412       .  A
C2298      C2299   1.415       .  A
C2298      C2303   1.452       .  S
C2299      C2300   1.417       .  A
C2299      C2306   1.451       .  S
C2300      C2301   1.417       .  A
C2301      C2302   1.419       .  A
C2301      C2304   1.448       .  S
C2302      C2305   1.450       .  S
C2303      N2310   1.157       .  T
C2304      N2309   1.157       .  T
C2305      N2307   1.157       .  T
C2306      N2308   1.157       .  T
C2311      C2312   1.415       .  A
C2311      C2316   1.415       .  A
C2312      C2313   1.418       .  A
C2312      C2317   1.449       .  S
C2313      C2314   1.416       .  A
C2313      C2320   1.451       .  S
C2314      C2315   1.419       .  A
C2315      C2316   1.417       .  A
C2315      C2318   1.451       .  S
C2316      C2319   1.451       .  S
C2317      N2324   1.157       .  T
C2318      N2323   1.157       .  T
C2319      N2321   1.157       .  T
C2320      N2322   1.157       .  T
C2325      C2326   1.415       .  A
C2325      C2330   1.416       .  A
C2326      C2327   1.414       .  A
C2327      C2328   1.416       .  A
C2327      C2334   1.451       .  S
C2328      C2329   1.413       .  A
C2329      C2330   1.417       .  A
C2329      C2332   1.451       .  S
C2330      C2333   1.449       .  S
C2331      N2338   1.157       .  T
C2332      N2337   1.158       .  T
C2333      N2335   1.157       .  T
C2334      N2336   1.157       .  T
C2339      C2340   1.417       .  A
C2339      C2344   1.417       .  A
C2340      C2341   1.420       .  A
C2340      C2345   1.448       .  S
C2341      C2342   1.414       .  A
C2341      C2348   1.450       .  S
C2342      C2343   1.416       .  A
C2343      C2344   1.415       .  A
C2343      C2346   1.452       .  S
C2344      C2347   1.451       .  S
C2345      N2352   1.157       .  T
C2346      N2351   1.157       .  T
C2347      N2349   1.157       .  T
C2348      N2350   1.157       .  T
