geometry optimzed in LAMMPS
_audit_creation_date              2020-11-30 
_audit_creation_method            'lammps2cif' 
_symmetry_space_group_name_H-M    'P1' 
_symmetry_Int_Tables_number       1 
_symmetry_cell_setting            triclinic 
loop_ 
_symmetry_equiv_pos_as_xyz 
  x,y,z 
_cell_length_a                    28.63487264 
_cell_length_b                    29.383746114505033 
_cell_length_c                    28.701297061416867 
_cell_angle_alpha                 90.26962614094884 
_cell_angle_beta                  89.89142824160878 
_cell_angle_gamma                 89.7388774864524 
loop_ 
_atom_site_label 
_atom_site_type_symbol 
_atom_site_fract_x 
_atom_site_fract_y 
_atom_site_fract_z 
_atom_site_charge 
C1          C  0.32603457  0.33390665  0.15556561    -0.02100
C2          C  0.32972213  0.10194752  0.38584485    -0.02100
C3          C  0.11071867  0.09520566  0.14912207    -0.02100
C4          C  0.09573872  0.32880672  0.38625935    -0.02100
C5          C  0.32368166  0.10221997  0.65486246    -0.02100
C6          C  0.06670536  0.11048322  0.87487083    -0.02100
C7          C  0.09180530  0.33413442  0.65417088    -0.02100
C8          C  0.33036901  0.33190242  0.87720701    -0.02100
C9          C  0.35689759  0.36187435  0.12191049     0.42800
N10         N  0.37489391  0.40910695  0.06668513     0.01700
C11         C  0.58263537  0.41037150  0.94332381    -0.06100
H12         H  0.60444746  0.41677963  0.11473741     0.07200
C13         C  0.52788203  0.58070607  0.10220783    -0.06500
Co14       Co  0.46187070  0.38073655  0.01529894     0.74200
N15         N  0.54388026  0.41032018  0.07132740    -0.25700
Co16       Co  0.54462085  0.46513164  0.02358974     0.74100
C17         C  0.57120492  0.56361264  0.12419094     0.42900
N18         N  0.40364880  0.54436080  0.07568709     0.01400
N19         N  0.54278501  0.51335716  0.07667788     0.01500
N20         N  0.52981514  0.35581622  0.93182818    -0.46500
H21         H  0.42404062  0.32006750  0.10813053     0.07200
N22         N  0.51282285  0.37776671  0.06680985     0.01700
N23         N  0.54445525  0.51917039  0.97408942     0.01500
C24         C  0.56551134  0.56836061  0.92127976     0.43100
N25         N  0.37260610  0.51143684  0.07135653    -0.25100
C26         C  0.40100483  0.34889483  0.93488606    -0.06000
N27         N  0.34281632  0.39955535  0.09860527    -0.46200
N28         N  0.57708272  0.52842810  0.94246747    -0.46500
C29         C  0.35515853  0.35923607  0.91565645     0.42900
N30         N  0.51556041  0.38536379  0.96445566     0.01700
N31         N  0.37321476  0.51964271  0.97211391    -0.25100
N32         N  0.40947672  0.37926361  0.06649902    -0.25600
N33         N  0.40692425  0.55023327  0.97356185     0.01400
H34         H  0.30478901  0.52184924  0.94185991     0.07300
H35         H  0.50480586  0.61595082  0.94193915     0.07300
N36         N  0.54638453  0.41769685  0.97080774    -0.25700
N37         N  0.51184293  0.54669953  0.07551506    -0.25300
N38         N  0.37525232  0.41217965  0.96481588     0.01700
C39         C  0.55841556  0.35209035  0.12131805     0.43100
C40         C  0.33898778  0.51739764  0.10287092    -0.06600
N41         N  0.51206064  0.55120133  0.97601679    -0.25300
H42         H  0.51352026  0.61475449  0.10126194     0.07300
N43         N  0.52046161  0.34289692  0.09506368    -0.46500
H44         H  0.30916731  0.49548245  0.10625700     0.07300
C45         C  0.35758665  0.57930269  0.92420158     0.43000
C46         C  0.40229054  0.34940929  0.10111277    -0.06100
Co47       Co  0.37322916  0.46304804  0.01819489     0.73800
N48         N  0.39198845  0.57367183  0.10956878    -0.46200
C49         C  0.57207735  0.37041167  0.91535001     0.43200
N50         N  0.34140417  0.39943321  0.93561199    -0.46200
Co51       Co  0.45845831  0.54862765  0.02550377     0.73900
C52         C  0.52317059  0.58406772  0.94555033    -0.06600
C53         C  0.57381326  0.39762006  0.10500522    -0.06100
N54         N  0.40994268  0.38233991  0.96511230    -0.25600
N55         N  0.57851672  0.52234092  0.10443992    -0.46400
H56         H  0.61452268  0.42720525  0.94974049     0.07200
C57         C  0.33927886  0.53645594  0.94453627    -0.06500
Cl58       Cl  0.45944664  0.46449167  0.02048595    -0.49500
C59         C  0.35056200  0.55933591  0.12781968     0.43000
H60         H  0.42228747  0.31870217  0.93048691     0.07200
N61         N  0.39885936  0.58557028  0.94603053    -0.46200
C62         C  0.32353843  0.57874924  0.16987208    -0.02100
C63         C  0.10595866  0.84469608  0.15147974    -0.02100
C64         C  0.09398153  0.60485533  0.38355886    -0.02100
C65         C  0.31806157  0.82720368  0.40008326    -0.02100
C66         C  0.35483752  0.85917371  0.42294682     0.42800
N67         N  0.40720780  0.88137813  0.47354364     0.01700
C68         C  0.39968789  0.08581495  0.60033033    -0.06100
H69         H  0.42628706  0.11104107  0.42933592     0.07200
C70         C  0.58516088  0.02860383  0.43908302    -0.06500
Co71       Co  0.37707292  0.96864710  0.52129731     0.74200
N72         N  0.41333095  0.05009028  0.46851693    -0.25700
Co73       Co  0.46509623  0.05014211  0.51995825     0.74100
C74         C  0.57019098  0.07253521  0.41882650     0.42900
N75         N  0.54702270  0.91066784  0.46954457     0.01400
N76         N  0.51892810  0.04858547  0.46929271     0.01500
N77         N  0.34488213  0.03138862  0.60272558    -0.46500
H78         H  0.31382221  0.92639204  0.43554747     0.07200
N79         N  0.37887673  0.02032532  0.46851238     0.01700
N80         N  0.51693400  0.04840184  0.57166267     0.01500
C81         C  0.56585388  0.07004227  0.62486873     0.43100
N82         N  0.51261903  0.88098909  0.47220446    -0.25100
C83         C  0.34299397  0.90374240  0.60322783    -0.06000
N84         N  0.39412075  0.84654753  0.44651261    -0.46200
N85         N  0.52475419  0.08014953  0.60378784    -0.46500
C86         C  0.35988260  0.86067555  0.62451202     0.42900
N87         N  0.37832337  0.02100106  0.57206752     0.01700
N88         N  0.51503435  0.88563741  0.57546221    -0.25100
N89         N  0.37721281  0.91555147  0.47182626    -0.25600
N90         N  0.54966441  0.91492602  0.57212838     0.01400
H91         H  0.50060090  0.83290694  0.62502642     0.07300
H92         H  0.61433673  0.00871596  0.60695843     0.07300
N93         N  0.41109091  0.05238126  0.57018862    -0.25700
N94         N  0.55128036  0.01640614  0.46921761    -0.25300
N95         N  0.40994214  0.88591264  0.57438882     0.01700
C96         C  0.36120681  0.06827311  0.41301552     0.43100
C97         C  0.51903612  0.84854087  0.43988817    -0.06600
N98         N  0.55028860  0.01720437  0.57006200    -0.25300
H99         H  0.61800503  0.01075891  0.43474584     0.07300
N100        N  0.34635211  0.03087839  0.43695816    -0.46500
H101        H  0.49705338  0.81903395  0.43545898     0.07300
C102        C  0.56878978  0.87380552  0.63215890     0.43000
C103        C  0.34398668  0.90520779  0.44098392    -0.06100
Co104      Co  0.46147524  0.88311934  0.52401267     0.73800
N105        N  0.57835707  0.89834511  0.43741233    -0.46200
C106        C  0.35504477  0.07238564  0.62214325     0.43200
N107        N  0.40101321  0.85231399  0.60346997    -0.46200
Co108      Co  0.55036430  0.96453102  0.51973761     0.73900
C109        C  0.58256909  0.02783524  0.60211436    -0.06600
C110        C  0.40538412  0.08104417  0.43518409    -0.06100
N111        N  0.37640338  0.91680222  0.57297090    -0.25600
N112        N  0.52889164  0.08201859  0.43996592    -0.46400
H113        H  0.41895106  0.11712032  0.60447050     0.07200
C114        C  0.52307404  0.85956650  0.61329183    -0.06500
Cl115      Cl  0.46341787  0.96664081  0.52100789    -0.49500
C116        C  0.56238028  0.85991059  0.41576664     0.43000
H117        H  0.30992237  0.92099911  0.60771484     0.07200
N118        N  0.58226432  0.90871907  0.60445384    -0.46200
C119        C  0.60925591  0.34525501  0.88476197    -0.02100
C120        C  0.81765452  0.33662586  0.65054097    -0.02100
C121        C  0.59240113  0.10194418  0.65848822    -0.02100
C122        C  0.82616341  0.11864020  0.90576571    -0.02100
C123        C  0.33448120  0.61599027  0.89260204    -0.02100
C124        C  0.33355526  0.82376125  0.65203394    -0.02100
C125        C  0.09764253  0.60394386  0.66015219    -0.02100
C126        C  0.08073296  0.83985162  0.87074617    -0.02100
C127        C  0.59351295  0.82557133  0.38970246    -0.02100
C128        C  0.83661819  0.60611606  0.37864763    -0.02100
C129        C  0.61001024  0.58905471  0.15059281    -0.02100
C130        C  0.83210253  0.83161697  0.15720386    -0.02100
C131        C  0.60060008  0.59739366  0.89359534    -0.02100
C132        C  0.83885430  0.60925557  0.66936493    -0.02100
C133        C  0.60012644  0.85254476  0.67066900    -0.02100
C134        C  0.81426445  0.83667997  0.89186509    -0.02100
C135        C  0.07341358  0.07079941  0.11876018     0.42800
N136        N  0.02122245  0.01920260  0.10228747     0.01700
C137        C  0.00514140  0.88755648  0.90085874    -0.06100
H138        H  0.97200014  0.06187864  0.87740719     0.07200
C139        C  0.83979455  0.05951519  0.97805479    -0.06500
Co140      Co  0.04367924  0.97126407  0.01144803     0.74200
N141        N  0.99708251  0.02054746  0.93293574    -0.25700
Co142      Co  0.94650453  0.97051102  0.93777499     0.74100
C143        C  0.85198775  0.08088752  0.93291360     0.42900
N144        N  0.87882344  0.01797122  0.08781980     0.01400
N145        N  0.89523552  0.02130274  0.94492798     0.01500
N146        N  0.06968115  0.89207251  0.94435564    -0.46500
H147        H  0.10973917  0.05892205  0.04803056     0.07200
N148        N  0.03489716  0.02129626  0.95886811     0.01700
N149        N  0.89430218  0.92106253  0.94242715     0.01500
C150        C  0.84388659  0.86823067  0.92456784     0.43100
N151        N  0.91590007  0.01788598  0.11498330    -0.25100
C152        C  0.08463666  0.89012779  0.07260464    -0.06000
N153        N  0.03581568  0.04768380  0.13553604    -0.46200
N154        N  0.88247340  0.89092450  0.90988261    -0.46500
C155        C  0.07251316  0.86795336  0.11721035     0.42900
N156        N  0.03742978  0.92176533  0.95862114     0.01700
N157        N  0.91515031  0.91745047  0.11062260    -0.25100
N158        N  0.04816314  0.02065833  0.06483452    -0.25600
N159        N  0.87910669  0.91836520  0.08191437     0.01400
H160        H  0.93141206  0.87383234  0.16878392     0.07300
H161        H  0.80650717  0.88017511  0.99555864     0.07300
N162        N  0.99970639  0.92080068  0.93240678    -0.25700
N163        N  0.86799644  0.02281077  0.98208108    -0.25300
N164        N  0.02072869  0.91923823  0.09938905     0.01700
C165        C  0.04351510  0.07744438  0.90992590     0.43100
C166        C  0.90956300  0.04905935  0.14896543    -0.06600
N167        N  0.86554322  0.92118144  0.97825172    -0.25300
H168        H  0.81205298  0.06842154  0.00209069     0.07300
N169        N  0.06415984  0.05362640  0.94506913    -0.46500
H170        H  0.93346702  0.05489113  0.17746671     0.07300
C171        C  0.86439032  0.86014335  0.12604407     0.43000
C172        C  0.08095299  0.05257453  0.07151820    -0.06100
Co173      Co  0.96829798  0.96844863  0.10749372     0.73800
N174        N  0.84613314  0.04639105  0.10334942    -0.46200
C175        C  0.05255447  0.86857437  0.90733968     0.43200
N176        N  0.03308819  0.88932881  0.13161734    -0.46200
Co177      Co  0.87204881  0.97024979  0.03266168     0.73900
C178        C  0.83347196  0.88842371  0.97091488    -0.06600
C179        C  0.99886317  0.05468861  0.90242535    -0.06100
N180        N  0.05051260  0.92086606  0.06420978    -0.25600
N181        N  0.88645020  0.05452854  0.91483286    -0.46400
H182        H  0.97861246  0.87861277  0.87631242     0.07200
C183        C  0.90866413  0.88231469  0.14003509    -0.06500
Cl184      Cl  0.95766255  0.97004889  0.02245102    -0.49500
C185        C  0.86260892  0.06847434  0.14163774     0.43000
H186        H  0.11553825  0.88534265  0.05139487     0.07200
N187        N  0.84804979  0.88604813  0.09064432    -0.46200
C188        C  0.59371894  0.10247052  0.38058963    -0.02100
C189        C  0.83218347  0.09714233  0.17620019    -0.02100
C190        C  0.58242746  0.31653111  0.15365787    -0.02100
C191        C  0.84109147  0.33127984  0.37881176    -0.02100
C192        C  0.06150624  0.36489586  0.62381381     0.42800
N193        N  0.01150686  0.41605414  0.60366910     0.01700
C194        C  0.88348981  0.41031394  0.39770649    -0.06100
H195        H  0.05518839  0.42871154  0.37326880     0.07200
C196        C  0.04355364  0.58856765  0.46306901    -0.06500
Co197      Co  0.95950316  0.38700659  0.51791302     0.74200
N198        N  0.01434336  0.42010014  0.43536625    -0.25700
Co199      Co  0.96318999  0.47330533  0.43613713     0.74100
C200        C  0.06294027  0.57636009  0.41686898     0.42900
N201        N  0.01262834  0.55186925  0.57962177     0.01400
N202        N  0.01324208  0.52527809  0.43981214     0.01500
N203        N  0.88356349  0.35554183  0.45190532    -0.46500
H204        H  0.04178519  0.32032270  0.56046154     0.07200
N205        N  0.01220735  0.38670773  0.46589173     0.01700
N206        N  0.91192387  0.52513864  0.43807038     0.01500
C207        C  0.86046223  0.57524077  0.41532002     0.43100
N208        N  0.01284376  0.51858394  0.61038406    -0.25100
C209        C  0.87225860  0.35753441  0.57666485    -0.06000
N210        N  0.04312705  0.40571763  0.63563752    -0.46200
N211        N  0.88323299  0.53617539  0.40352011    -0.46500
C212        C  0.85080189  0.36861595  0.62203872     0.42900
N213        N  0.91098517  0.38956918  0.46425593     0.01700
N214        N  0.91331246  0.52031529  0.61222476    -0.25100
N215        N  0.00869295  0.38492239  0.57065772    -0.25600
N216        N  0.90985766  0.55209436  0.58001511     0.01400
H217        H  0.89223529  0.51746703  0.68355770     0.07300
H218        H  0.87505962  0.61890904  0.48110534     0.07300
N219        N  0.91252276  0.42188414  0.43260442    -0.25700
N220        N  0.01263771  0.55577322  0.47371747    -0.25300
N221        N  0.90766225  0.41606335  0.60579095     0.01700
C222        C  0.06569427  0.36314677  0.41640302     0.43100
C223        C  0.04466349  0.52857743  0.64337452    -0.06600
N224        N  0.91131887  0.55554279  0.47218224    -0.25300
H225        H  0.04879637  0.61924639  0.48323195     0.07300
N226        N  0.04099896  0.35240730  0.45524057    -0.46500
H227        H  0.05005120  0.50928105  0.67487661     0.07300
C228        C  0.86575355  0.57606030  0.63714828     0.43000
C229        C  0.03874588  0.35155185  0.58016159    -0.06100
Co230      Co  0.96140170  0.46739336  0.60850664     0.73800
N231        N  0.04268037  0.58458231  0.59054373    -0.46200
C232        C  0.86265777  0.36657890  0.41132769     0.43200
N233        N  0.87564439  0.40520599  0.63805548    -0.46200
Co234      Co  0.96132862  0.55427864  0.52641599     0.73900
C235        C  0.88049237  0.58831081  0.46090001    -0.06600
C236        C  0.04721953  0.40874608  0.40353797    -0.06100
N237        N  0.90686540  0.38759365  0.56994912    -0.25600
N238        N  0.04175814  0.53690610  0.40556105    -0.46400
H239        H  0.88031199  0.42816953  0.36498961     0.07200
C240        C  0.88937038  0.53365143  0.64992233    -0.06500
Cl241      Cl  0.96120858  0.47062419  0.52217327    -0.49500
C242        C  0.06535776  0.57269609  0.63012758     0.43000
H243        H  0.86616628  0.32824740  0.55466224     0.07200
N244        N  0.88198233  0.58603093  0.59373471    -0.46200
C245        C  0.81091781  0.35539789  0.33926963    -0.11600
C246        C  0.77327065  0.38629921  0.34998674     0.03900
C247        C  0.73627044  0.39343506  0.31838457    -0.12100
C248        C  0.73767080  0.37470706  0.27366141     0.18800
C249        C  0.77921172  0.35388562  0.25909526    -0.09200
C250        C  0.81150978  0.33974521  0.29232368    -0.02100
H251        H  0.70510935  0.41136626  0.32978765     0.05300
C252        C  0.69381819  0.36355362  0.24829510     0.20700
H253        H  0.83240225  0.31190401  0.28069108     0.10500
C254        C  0.66166382  0.39628477  0.23255992    -0.15500
C255        C  0.62267011  0.38338303  0.20522179     0.03400
C256        C  0.61879755  0.33741924  0.18884300    -0.10800
C257        C  0.64636011  0.30538764  0.21315490    -0.00800
C258        C  0.68246547  0.31770982  0.24201861    -0.06000
H259        H  0.66531378  0.43121902  0.24382798     0.06500
H260        H  0.63899413  0.26956772  0.21139972     0.09800
Br261      Br  0.78806306  0.33485661  0.19544721    -0.05700
Br262      Br  0.76586715  0.41807686  0.40749842    -0.02600
Br263      Br  0.57097600  0.42540599  0.20744650     0.00200
Br264      Br  0.71297152  0.26947053  0.27429729    -0.04200
C265        C  0.80406192  0.13628013  0.14976138    -0.11600
C266        C  0.79508573  0.18166955  0.16762780     0.03900
C267        C  0.76503746  0.21149360  0.14452698    -0.12100
C268        C  0.73597609  0.19644572  0.10926605     0.18800
C269        C  0.74368152  0.15301248  0.09049952    -0.09200
C270        C  0.77985676  0.12561308  0.10776770    -0.02100
H271        H  0.75785563  0.24470559  0.15959859     0.05300
C272        C  0.69103183  0.22115751  0.10481712     0.20700
H273        H  0.78187219  0.09234359  0.09240593     0.10500
C274        C  0.69001890  0.26512178  0.08674437    -0.15500
C275        C  0.65246378  0.29508244  0.09568087     0.03400
C276        C  0.61345807  0.28146235  0.12409236    -0.10800
C277        C  0.61427593  0.23472572  0.13749052    -0.00800
C278        C  0.65267479  0.20636140  0.13049870    -0.06000
H279        H  0.72049849  0.27737322  0.06830527     0.06500
H280        H  0.59058002  0.22106046  0.16243979     0.09800
Br281      Br  0.70045629  0.12579035  0.04790975    -0.05700
Br282      Br  0.80925016  0.20768947  0.22725142    -0.02600
Br283      Br  0.66350631  0.35432703  0.07107173     0.00200
Br284      Br  0.65649290  0.15305521  0.16869228    -0.04200
C285        C  0.86449825  0.12059112  0.21386133    -0.11600
C286        C  0.90189082  0.14986867  0.20115536     0.03900
C287        C  0.92326958  0.17816502  0.23472823    -0.12100
C288        C  0.90756010  0.18146318  0.28094391     0.18800
C289        C  0.87655494  0.14664833  0.29553067    -0.09200
C290        C  0.85406939  0.11912956  0.26234090    -0.02100
H291        H  0.94972361  0.20099660  0.22372030     0.05300
C292        C  0.91531712  0.22519295  0.30911537     0.20700
H293        H  0.82480504  0.10024607  0.27536438     0.10500
C294        C  0.91671805  0.22396894  0.35808793    -0.15500
C295        C  0.89883208  0.26052348  0.38468988     0.03400
C296        C  0.88417831  0.30124563  0.36190052    -0.10800
C297        C  0.90507833  0.30802804  0.31835371    -0.00800
C298        C  0.91389234  0.26994723  0.28948124    -0.06000
H299        H  0.92739238  0.19329396  0.37573869     0.06500
H300        H  0.90313392  0.34145123  0.30268967     0.09800
Br301      Br  0.85933057  0.13445090  0.35907017    -0.05700
Br302      Br  0.91925839  0.16063323  0.13739699    -0.02600
Br303      Br  0.89176609  0.25009909  0.45036611     0.00200
Br304      Br  0.91112078  0.28389190  0.22426084    -0.04200
C305        C  0.54355767  0.29111431  0.18377014    -0.11600
C306        C  0.51522612  0.25413399  0.16777475     0.03900
C307        C  0.50243708  0.21908149  0.19919423    -0.12100
C308        C  0.51524590  0.22051863  0.24671587     0.18800
C309        C  0.53153576  0.26335005  0.26349873    -0.09200
C310        C  0.54210683  0.29832676  0.23239780    -0.02100
H311        H  0.48414172  0.18973600  0.18576557     0.05300
C312        C  0.51435901  0.17826178  0.27751734     0.20700
H313        H  0.55507120  0.32965870  0.24720870     0.10500
C314        C  0.50192167  0.18274551  0.32456103    -0.15500
C315        C  0.52282985  0.15587860  0.35915544     0.03400
C316        C  0.55430412  0.11971098  0.34655353    -0.10800
C317        C  0.55388522  0.10688436  0.29886614    -0.00800
C318        C  0.53490718  0.13591414  0.26446585    -0.06000
H319        H  0.48046185  0.21131322  0.33525569     0.06500
H320        H  0.57306216  0.07727372  0.28708576     0.09800
Br321      Br  0.54491443  0.27838572  0.32750253    -0.05700
Br322      Br  0.50275929  0.24201657  0.10315685    -0.02600
Br323      Br  0.51421832  0.17966376  0.42130879     0.00200
Br324      Br  0.54317011  0.11692915  0.20104432    -0.04200
C325        C  0.80469454  0.29822323  0.40085677    -0.11600
C326        C  0.77949118  0.30226506  0.44400789     0.03900
C327        C  0.74245551  0.27223285  0.45395140    -0.12100
C328        C  0.73117263  0.23675042  0.42344732     0.18800
C329        C  0.75888906  0.23008062  0.38376138    -0.09200
C330        C  0.79306808  0.26093381  0.37212745    -0.02100
H331        H  0.72135343  0.27746094  0.48489905     0.05300
C332        C  0.68628421  0.21194440  0.42707156     0.20700
H333        H  0.81074198  0.25558285  0.33917911     0.10500
C334        C  0.65422658  0.22077425  0.39190651    -0.15500
C335        C  0.62762280  0.18530402  0.37407294     0.03400
C336        C  0.61828229  0.14560764  0.40152871    -0.10800
C337        C  0.64424666  0.14170651  0.44335823    -0.00800
C338        C  0.68142025  0.17178407  0.45291542    -0.06000
H339        H  0.65953214  0.25061066  0.37042576     0.06500
H340        H  0.64215746  0.11068863  0.46340307     0.09800
Br341      Br  0.74997623  0.18100252  0.34132585    -0.05700
Br342      Br  0.78953538  0.34663902  0.49167354    -0.02600
Br343      Br  0.62533204  0.18816090  0.30716920     0.00200
Br344      Br  0.73196384  0.15064166  0.49067684    -0.04200
C345        C  0.79711173  0.06192062  0.19863637    -0.11600
C346        C  0.81067382  0.02940198  0.23326077     0.03900
C347        C  0.77658136  0.01170054  0.26358640    -0.12100
C348        C  0.72900572  0.01931501  0.25527965     0.18800
C349        C  0.71637150  0.03631723  0.21194439    -0.09200
C350        C  0.74910274  0.06035015  0.18592152    -0.02100
H351        H  0.78736564  0.99605845  0.29594422     0.05300
C352        C  0.69870658  0.03421697  0.29416614     0.20700
H353        H  0.73467378  0.07835721  0.15714349     0.10500
C354        C  0.70114992  0.07991423  0.30718817    -0.15500
C355        C  0.67854752  0.09272214  0.34794341     0.03400
C356        C  0.63343283  0.07448476  0.35519118    -0.10800
C357        C  0.62910045  0.02842126  0.34105906    -0.00800
C358        C  0.66698525  0.00648385  0.31815534    -0.06000
H359        H  0.72888911  0.10066017  0.29315518     0.06500
H360        H  0.59942804  0.00907737  0.35206453     0.09800
Br361      Br  0.65216042  0.03572965  0.19302966    -0.05700
Br362      Br  0.87428573  0.01495736  0.24881486    -0.02600
Br363      Br  0.72202985  0.08036050  0.39720128     0.00200
Br364      Br  0.69480924  0.95685983  0.35103570    -0.04200
C365        C  0.63003313  0.89363936  0.69089935    -0.11600
C366        C  0.61562233  0.92567725  0.72438040     0.03900
C367        C  0.64942714  0.94223299  0.75658305    -0.12100
C368        C  0.69748541  0.93096546  0.75086335     0.18800
C369        C  0.71077024  0.91615350  0.70599166    -0.09200
C370        C  0.67653308  0.90083960  0.67506690    -0.02100
H371        H  0.63776567  0.95936935  0.78801172     0.05300
C372        C  0.72464423  0.91376486  0.79211666     0.20700
H373        H  0.68817094  0.88689557  0.64201985     0.10500
C374        C  0.71038044  0.87173972  0.80902448    -0.15500
C375        C  0.73774344  0.84588806  0.83931283     0.03400
C376        C  0.77874664  0.86461029  0.86085071    -0.10800
C377        C  0.78978617  0.90955738  0.84732318    -0.00800
C378        C  0.76681294  0.93149497  0.81016967    -0.06000
H379        H  0.67965867  0.85629540  0.79405350     0.06500
H380        H  0.82130018  0.92527041  0.85986873     0.09800
Br381      Br  0.77435821  0.90644723  0.68778635    -0.05700
Br382      Br  0.55195722  0.94640618  0.72600168    -0.02600
Br383      Br  0.71510072  0.78487640  0.84220406     0.00200
Br384      Br  0.80293941  0.97729983  0.77996534    -0.04200
C385        C  0.80979628  0.64328583  0.63768171    -0.11600
C386        C  0.82488305  0.68726608  0.62397096     0.03900
C387        C  0.79327010  0.72395031  0.62476705    -0.12100
C388        C  0.74538049  0.71651828  0.63029868     0.18800
C389        C  0.72923108  0.67140123  0.63152190    -0.09200
C390        C  0.76130758  0.63527532  0.63167548    -0.02100
H391        H  0.80541748  0.75789170  0.61668787     0.05300
C392        C  0.71258530  0.75535790  0.63522280     0.20700
H393        H  0.74756585  0.60111958  0.63444696     0.10500
C394        C  0.67934465  0.76500588  0.60068156    -0.15500
C395        C  0.64388096  0.79768042  0.60826747     0.03400
C396        C  0.63822893  0.81776003  0.65318592    -0.10800
C397        C  0.67095249  0.80475732  0.68763752    -0.00800
C398        C  0.71032013  0.77951184  0.67714784    -0.06000
H399        H  0.68126420  0.74730912  0.56755590     0.06500
H400        H  0.66843978  0.81885229  0.72243576     0.09800
Br401      Br  0.66405608  0.65717078  0.63663922    -0.05700
Br402      Br  0.86743502  0.69319315  0.57294577    -0.02600
Br403      Br  0.60511651  0.80982299  0.55610943     0.00200
Br404      Br  0.76158810  0.78566346  0.71906993    -0.04200
C405        C  0.87471765  0.63197366  0.70434920    -0.11600
C406        C  0.90360329  0.66921628  0.69392046     0.03900
C407        C  0.91149809  0.70274441  0.72825850    -0.12100
C408        C  0.89548190  0.69737263  0.77469146     0.18800
C409        C  0.87871691  0.65393988  0.78669393    -0.09200
C410        C  0.87377280  0.62048369  0.75232003    -0.02100
H411        H  0.92983496  0.73322191  0.71832566     0.05300
C412        C  0.88834898  0.73862882  0.80525647     0.20700
H413        H  0.86156059  0.58753502  0.76354032     0.10500
C414        C  0.86658548  0.77583177  0.78422251    -0.15500
C415        C  0.85118644  0.81321995  0.80994061     0.03400
C416        C  0.85112736  0.81184820  0.85936774    -0.10800
C417        C  0.88356162  0.78101243  0.87911296    -0.00800
C418        C  0.90071761  0.74351565  0.85314964    -0.06000
H419        H  0.86264787  0.77669766  0.74671522     0.06500
H420        H  0.88940287  0.78173844  0.91639118     0.09800
Br421      Br  0.85613824  0.63769094  0.84671419    -0.05700
Br422      Br  0.94769472  0.66570247  0.64390437    -0.02600
Br423      Br  0.85415218  0.86778714  0.77461360     0.00200
Br424      Br  0.93819959  0.70112493  0.88737305    -0.04200
C425        C  0.58403196  0.62404831  0.84879680    -0.11600
C426        C  0.53828270  0.62840109  0.82905336     0.03900
C427        C  0.52911783  0.66294197  0.79572181    -0.12100
C428        C  0.56484207  0.69121828  0.77901234     0.18800
C429        C  0.61072023  0.68079337  0.79168525    -0.09200
C430        C  0.61984539  0.64888295  0.82615742    -0.02100
H431        H  0.49389559  0.66847811  0.78366235     0.05300
C432        C  0.55557735  0.73490477  0.75371007     0.20700
H433        H  0.65571829  0.64530679  0.83737394     0.10500
C434        C  0.56401100  0.77553635  0.77749491    -0.15500
C435        C  0.57165300  0.81704063  0.75438117     0.03400
C436        C  0.57116421  0.81928572  0.70413922    -0.10800
C437        C  0.55405998  0.77878536  0.68199640    -0.00800
C438        C  0.54826459  0.73719818  0.70563277    -0.06000
H439        H  0.56800709  0.77406140  0.81503845     0.06500
H440        H  0.55253901  0.77698501  0.64443364     0.09800
Br441      Br  0.66237308  0.71063917  0.76334554    -0.05700
Br442      Br  0.48630935  0.59052704  0.84408994    -0.02600
Br443      Br  0.58058380  0.86435197  0.79924309     0.00200
Br444      Br  0.53732856  0.68297381  0.66999308    -0.04200
C445        C  0.63968992  0.56436841  0.87314776    -0.11600
C446        C  0.62995001  0.53706569  0.83302535     0.03900
C447        C  0.66548179  0.52713483  0.80082861    -0.12100
C448        C  0.71237939  0.53476760  0.81176844     0.18800
C449        C  0.72291585  0.54836924  0.85711113    -0.09200
C450        C  0.68767354  0.56565284  0.88600323    -0.02100
H451        H  0.65623623  0.51479239  0.76651449     0.05300
C452        C  0.74395123  0.54905252  0.77394004     0.20700
H453        H  0.70067162  0.58057918  0.91702066     0.10500
C454        C  0.74187333  0.59493708  0.76314268    -0.15500
C455        C  0.77268448  0.61371764  0.73162667     0.03400
C456        C  0.80155605  0.58579037  0.70221028    -0.10800
C457        C  0.79944355  0.53838204  0.71065652    -0.00800
C458        C  0.77635380  0.52129436  0.75009547    -0.06000
H459        H  0.71906125  0.61727316  0.78308601     0.06500
H460        H  0.81743005  0.51392410  0.68952307     0.09800
Br461      Br  0.78582228  0.54667112  0.87938624    -0.05700
Br462      Br  0.56966102  0.51334433  0.81830784    -0.02600
Br463      Br  0.77784397  0.67801603  0.73824485     0.00200
Br464      Br  0.79757275  0.46396202  0.77353790    -0.04200
C465        C  0.61816872  0.63489656  0.92921140    -0.11600
C466        C  0.60655321  0.68230762  0.92639691     0.03900
C467        C  0.63824453  0.71502004  0.94188207    -0.12100
C468        C  0.68071352  0.70186795  0.96149411     0.18800
C469        C  0.68570815  0.65596412  0.97541296    -0.09200
C470        C  0.65055553  0.62425665  0.96437981    -0.02100
H471        H  0.63157470  0.75055421  0.93431061     0.05300
C472        C  0.72108326  0.73338697  0.95604262     0.20700
H473        H  0.65469359  0.58926540  0.97539945     0.10500
C474        C  0.71784385  0.77913545  0.97029545    -0.15500
C475        C  0.74719581  0.81292283  0.95134134     0.03400
C476        C  0.78549794  0.80075534  0.92133608    -0.10800
C477        C  0.78971247  0.75331516  0.91116270    -0.00800
C478        C  0.75654174  0.72153520  0.92472321    -0.06000
H479        H  0.68830642  0.78963858  0.99139979     0.06500
H480        H  0.81147904  0.74075605  0.88362181     0.09800
Br481      Br  0.74437058  0.63263763  0.99718787    -0.05700
Br482      Br  0.54823237  0.70682470  0.90536670    -0.02600
Br483      Br  0.72253854  0.87378027  0.95757429     0.00200
Br484      Br  0.75045070  0.66913449  0.88473633    -0.04200
C485        C  0.79967136  0.79527571  0.13247731    -0.11600
C486        C  0.80302563  0.77453185  0.08730534     0.03900
C487        C  0.77096236  0.73972738  0.07421879    -0.12100
C488        C  0.73138974  0.72975166  0.10175092     0.18800
C489        C  0.72557195  0.75464473  0.14274790    -0.09200
C490        C  0.76160689  0.78087620  0.15977458    -0.02100
H491        H  0.77637842  0.72127747  0.04195406     0.05300
C492        C  0.70143288  0.68865472  0.09417751     0.20700
H493        H  0.75657729  0.79516167  0.19358102     0.10500
C494        C  0.72031963  0.64560343  0.10374689    -0.15500
C495        C  0.69161753  0.60711459  0.10858317     0.03400
C496        C  0.64240239  0.61293596  0.11310088    -0.10800
C497        C  0.62447707  0.65331359  0.09251989    -0.00800
C498        C  0.65325315  0.69117596  0.08418506    -0.06000
H499        H  0.75790157  0.64152272  0.10552642     0.06500
H500        H  0.58710682  0.65828373  0.09008208     0.09800
Br501      Br  0.66743975  0.76017827  0.17463496    -0.05700
Br502      Br  0.84875513  0.78953639  0.04124646    -0.02600
Br503      Br  0.71966507  0.55278172  0.08368104     0.00200
Br504      Br  0.62429499  0.74637631  0.06319241    -0.04200
C505        C  0.80809901  0.57459011  0.34359383    -0.11600
C506        C  0.77176775  0.54514894  0.35944449     0.03900
C507        C  0.74053231  0.52454704  0.32781776    -0.12100
C508        C  0.74318134  0.53221065  0.27955419     0.18800
C509        C  0.78134922  0.55746186  0.26308314    -0.09200
C510        C  0.81207967  0.57788175  0.29436172    -0.02100
H511        H  0.71168412  0.50492762  0.34147645     0.05300
C512        C  0.70077367  0.52553603  0.24970937     0.20700
H513        H  0.83453506  0.60143482  0.27765386     0.10500
C514        C  0.65779859  0.54271363  0.26564364    -0.15500
C515        C  0.62253563  0.55354929  0.23388550     0.03400
C516        C  0.63288694  0.55394032  0.18529840    -0.10800
C517        C  0.66676716  0.52172446  0.17197521    -0.00800
C518        C  0.70198950  0.50847810  0.20355624    -0.06000
H519        H  0.65215585  0.54986286  0.30226225     0.06500
H520        H  0.66577236  0.50708748  0.13760467     0.09800
Br521      Br  0.79058831  0.57360557  0.19867938    -0.05700
Br522      Br  0.75817194  0.53448605  0.42397906    -0.02600
Br523      Br  0.56050647  0.56089199  0.25841064     0.00200
Br524      Br  0.74904922  0.46598335  0.18342599    -0.04200
C525        C  0.87803132  0.63435346  0.35697463    -0.11600
C526        C  0.89160047  0.67832098  0.37304543     0.03900
C527        C  0.91263337  0.70855100  0.34173554    -0.12100
C528        C  0.91233221  0.69875619  0.29388399     0.18800
C529        C  0.91434536  0.65165852  0.28254131    -0.09200
C530        C  0.90280738  0.61945145  0.31714072    -0.02100
H531        H  0.92233577  0.74212938  0.35375688     0.05300
C532        C  0.89780812  0.73589517  0.25996876     0.20700
H533        H  0.90362298  0.58358312  0.30828524     0.10500
C534        C  0.91577166  0.73897648  0.21422262    -0.15500
C535        C  0.89882170  0.77147439  0.18171074     0.03400
C536        C  0.86055813  0.80119100  0.19315750    -0.10800
C537        C  0.84311856  0.79579992  0.23851410    -0.00800
C538        C  0.86346490  0.76868803  0.27234254    -0.06000
H539        H  0.94488736  0.71760243  0.20408342     0.06500
H540        H  0.81255153  0.81306234  0.24945850     0.09800
Br541      Br  0.92506145  0.62836425  0.22096903    -0.05700
Br542      Br  0.88138646  0.70156259  0.43486230    -0.02600
Br543      Br  0.93140952  0.77206464  0.12343949     0.00200
Br544      Br  0.84094808  0.78262599  0.33429478    -0.04200
C545        C  0.56615510  0.78724819  0.36281040    -0.11600
C546        C  0.53369174  0.79718908  0.32637402     0.03900
C547        C  0.53254600  0.76958313  0.28603831    -0.12100
C548        C  0.55545111  0.72729911  0.28558710     0.18800
C549        C  0.57573033  0.71177669  0.32678520    -0.09200
C550        C  0.58553171  0.74272554  0.36114417    -0.02100
H551        H  0.51338390  0.78083161  0.25570316     0.05300
C552        C  0.56654388  0.70205036  0.24250996     0.20700
H553        H  0.61423518  0.73160849  0.38159237     0.10500
C554        C  0.61331217  0.69145611  0.23563572    -0.15500
C555        C  0.62719089  0.65589259  0.20711888     0.03400
C556        C  0.59353854  0.62983681  0.18187383    -0.10800
C557        C  0.54613752  0.64288973  0.18756489    -0.00800
C558        C  0.53314851  0.67965409  0.21585442    -0.06000
H559        H  0.63947808  0.70868213  0.25651468     0.06500
H560        H  0.51792699  0.62274596  0.17472673     0.09800
Br561      Br  0.60048926  0.65109322  0.33491421    -0.05700
Br562      Br  0.48695654  0.84372002  0.33005983    -0.02600
Br563      Br  0.69258647  0.64276670  0.21279286     0.00200
Br564      Br  0.46971438  0.69742426  0.21768315    -0.04200
C565        C  0.79834877  0.86925477  0.18010439    -0.11600
C566        C  0.80453814  0.88884871  0.22499244     0.03900
C567        C  0.76527753  0.89333938  0.25457892    -0.12100
C568        C  0.71983057  0.88520633  0.23777732     0.18800
C569        C  0.71410347  0.88404612  0.18906043    -0.09200
C570        C  0.75365762  0.87784351  0.16018774    -0.02100
H571        H  0.77065779  0.89911487  0.29146591     0.05300
C572        C  0.68243717  0.86987043  0.27118614     0.20700
H573        H  0.74798159  0.87111645  0.12350523     0.10500
C574        C  0.64241014  0.89598877  0.28175820    -0.15500
C575        C  0.61326145  0.88521108  0.32046057     0.03400
C576        C  0.62322243  0.84617744  0.34870400    -0.10800
C577        C  0.65902854  0.81756988  0.33197417    -0.00800
C578        C  0.68798124  0.82889508  0.29546325    -0.06000
H579        H  0.63567409  0.92670463  0.26211760     0.06500
H580        H  0.66535246  0.78500788  0.34810393     0.09800
Br581      Br  0.65342927  0.88494136  0.16108416    -0.05700
Br582      Br  0.86508256  0.89912282  0.25153428    -0.02600
Br583      Br  0.56276799  0.92685907  0.33122404     0.00200
Br584      Br  0.73156011  0.78298594  0.27999685    -0.04200
C585        C  0.62678832  0.80533022  0.42885263    -0.11600
C586        C  0.61694972  0.76505336  0.45495725     0.03900
C587        C  0.65340811  0.73323120  0.46227460    -0.12100
C588        C  0.69960893  0.74378609  0.44978947     0.18800
C589        C  0.70968197  0.78999317  0.44152876    -0.09200
C590        C  0.67328875  0.82084971  0.43230968    -0.02100
H591        H  0.64449504  0.69879229  0.47193592     0.05300
C592        C  0.73323696  0.70717163  0.43394691     0.20700
H593        H  0.68222654  0.85458716  0.42028425     0.10500
C594        C  0.74759069  0.70746431  0.38741788    -0.15500
C595        C  0.77830341  0.67469314  0.36904639     0.03400
C596        C  0.79894656  0.64067402  0.39809201    -0.10800
C597        C  0.78255507  0.63965773  0.44472552    -0.00800
C598        C  0.74918266  0.67107299  0.46174167    -0.06000
H599        H  0.73359567  0.73322260  0.36460703     0.06500
H600        H  0.79398750  0.61346607  0.46828415     0.09800
Br601      Br  0.77267879  0.81097806  0.43713414    -0.05700
Br602      Br  0.55459062  0.74417893  0.46820855    -0.02600
Br603      Br  0.78855876  0.68016945  0.30334755     0.00200
Br604      Br  0.72469263  0.66132212  0.52211044    -0.04200
C605        C  0.06752495  0.64216449  0.68476742    -0.11600
C606        C  0.08042000  0.68915614  0.69125120     0.03900
C607        C  0.05368961  0.71759900  0.71968676    -0.12100
C608        C  0.02386069  0.69997419  0.75337819     0.18800
C609        C  0.01170783  0.65346074  0.74920829    -0.09200
C610        C  0.02841917  0.62763741  0.71115042    -0.02100
H611        H  0.06288428  0.75331453  0.72160627     0.05300
C612        C  0.01361349  0.73143436  0.79359383     0.20700
H613        H  0.01762373  0.59246264  0.70894905     0.10500
C614        C  0.99825930  0.77606267  0.78340180    -0.15500
C615        C  0.01227402  0.81369937  0.81052365     0.03400
C616        C  0.04287637  0.80626236  0.84926068    -0.10800
C617        C  0.04092359  0.76168979  0.86758852    -0.00800
C618        C  0.03336193  0.72458914  0.83800767    -0.06000
H619        H  0.98116726  0.78268996  0.75055268     0.06500
H620        H  0.05546235  0.75464652  0.90161695     0.09800
Br621      Br  0.98056136  0.61937499  0.79647304    -0.05700
Br622      Br  0.13819432  0.71955337  0.67755601    -0.02600
Br623      Br  0.99130212  0.87214452  0.78726659     0.00200
Br624      Br  0.06224940  0.66931196  0.85756311    -0.04200
C625        C  0.30720142  0.79169673  0.61575688    -0.11600
C626        C  0.26064989  0.80166567  0.59998565     0.03900
C627        C  0.22980733  0.76597158  0.58952613    -0.12100
C628        C  0.24569415  0.72090799  0.58555420     0.18800
C629        C  0.29416249  0.71442656  0.58378580    -0.09200
C630        C  0.32349389  0.74778317  0.60280972    -0.02100
H631        H  0.19284016  0.77347080  0.58749856     0.05300
C632        C  0.21223742  0.68222795  0.59295272     0.20700
H633        H  0.35852071  0.73679676  0.60864622     0.10500
C634        C  0.16654744  0.68453957  0.57488183    -0.15500
C635        C  0.12970413  0.65724294  0.59179891     0.03400
C636        C  0.13752482  0.62650649  0.62977027    -0.10800
C637        C  0.18442730  0.62411422  0.64560774    -0.00800
C638        C  0.22090415  0.64933756  0.62748863    -0.06000
H639        H  0.15811055  0.71129861  0.55053557     0.06500
H640        H  0.19357765  0.60827646  0.67768744     0.09800
Br641      Br  0.32128847  0.66016540  0.55703712    -0.05700
Br642      Br  0.23352072  0.86155782  0.59693107    -0.02600
Br643      Br  0.06929461  0.67731573  0.57091666     0.00200
Br644      Br  0.27823471  0.64236551  0.66186944    -0.04200
C645        C  0.29410085  0.84437365  0.68361770    -0.11600
C646        C  0.26127457  0.81505176  0.70555216     0.03900
C647        C  0.22543323  0.83281085  0.73239979    -0.12100
C648        C  0.22376180  0.87868832  0.74482797     0.18800
C649        C  0.26208055  0.90605530  0.73273328    -0.09200
C650        C  0.29488129  0.89007505  0.69990269    -0.02100
H651        H  0.19948376  0.80981157  0.74570828     0.05300
C652        C  0.18231018  0.89340105  0.77253105     0.20700
H653        H  0.32414241  0.91177316  0.69193095     0.10500
C654        C  0.18656753  0.90397131  0.81972820    -0.15500
C655        C  0.14940551  0.89666736  0.85088277     0.03400
C656        C  0.10866899  0.87168975  0.83618117    -0.10800
C657        C  0.10348237  0.86807372  0.78721576    -0.00800
C658        C  0.13795473  0.88170923  0.75595789    -0.06000
H659        H  0.22002857  0.91445204  0.83340557     0.06500
H660        H  0.07716174  0.84809147  0.77120057     0.09800
Br661      Br  0.27804392  0.95917972  0.76745479    -0.05700
Br662      Br  0.26552145  0.74992723  0.70686539    -0.02600
Br663      Br  0.16296179  0.91753127  0.91277806     0.00200
Br664      Br  0.12648914  0.87309816  0.69048378    -0.04200
C665        C  0.29932372  0.59646564  0.85517291    -0.11600
C666        C  0.27579947  0.62614398  0.82319700     0.03900
C667        C  0.24560638  0.60870725  0.78936634    -0.12100
C668        C  0.23307014  0.56279683  0.78918671     0.18800
C669        C  0.25405569  0.53418039  0.82149213    -0.09200
C670        C  0.29055568  0.54951747  0.84943234    -0.02100
H671        H  0.22820576  0.63198472  0.76579857     0.05300
C672        C  0.19004796  0.54987262  0.76394596     0.20700
H673        H  0.31009202  0.52373411  0.86693398     0.10500
C674        C  0.19077013  0.52961457  0.71960902    -0.15500
C675        C  0.15355892  0.53754452  0.68827778     0.03400
C676        C  0.12031650  0.57277927  0.69918936    -0.10800
C677        C  0.11574499  0.58322714  0.74751432    -0.00800
C678        C  0.14856961  0.56893142  0.77968054    -0.06000
H679        H  0.22162421  0.51138929  0.70792245     0.06500
H680        H  0.09027151  0.60590113  0.76192209     0.09800
Br681      Br  0.22401429  0.48022969  0.83949216    -0.05700
Br682      Br  0.28292734  0.69102288  0.82158917    -0.02600
Br683      Br  0.15923950  0.51021751  0.62755896     0.00200
Br684      Br  0.13980903  0.58186165  0.84449160    -0.04200
C685        C  0.12165781  0.80824430  0.88965139    -0.11600
C686        C  0.14302920  0.77444942  0.85992390     0.03900
C687        C  0.17544063  0.74333578  0.87704101    -0.12100
C688        C  0.19517795  0.74854167  0.92079386     0.18800
C689        C  0.18077514  0.78626970  0.94777986    -0.09200
C690        C  0.14120458  0.81206015  0.93477781    -0.02100
H691        H  0.18755316  0.71594119  0.85461141     0.05300
C692        C  0.23226240  0.71498944  0.93392049     0.20700
H693        H  0.12940243  0.83762516  0.95897118     0.10500
C694        C  0.27954174  0.72719773  0.93308309    -0.15500
C695        C  0.31446904  0.69364144  0.93711014     0.03400
C696        C  0.30358515  0.64810066  0.92476562    -0.10800
C697        C  0.25688696  0.63528702  0.93437754    -0.00800
C698        C  0.22149008  0.66839803  0.93902060    -0.06000
H699        H  0.28913935  0.76277312  0.93432968     0.06500
H700        H  0.24686212  0.59984521  0.93226086     0.09800
Br701      Br  0.21954108  0.81090488  0.99523629    -0.05700
Br702      Br  0.13108399  0.76530412  0.79511171    -0.02600
Br703      Br  0.34317704  0.70178175  0.99686121     0.00200
Br704      Br  0.15848595  0.64861121  0.94810623    -0.04200
C705        C  0.37414781  0.63941595  0.86244574    -0.11600
C706        C  0.40046400  0.67845536  0.87487179     0.03900
C707        C  0.41501235  0.70892356  0.84013087    -0.12100
C708        C  0.40519831  0.70065748  0.79290576     0.18800
C709        C  0.39367943  0.65547378  0.78065849    -0.09200
C710        C  0.38080840  0.62491348  0.81556491    -0.02100
H711        H  0.43304889  0.73977561  0.85012451     0.05300
C712        C  0.40153139  0.73940475  0.75908866     0.20700
H713        H  0.37035486  0.59113835  0.80472480     0.10500
C714        C  0.41930174  0.73626028  0.71345301    -0.15500
C715        C  0.40445917  0.76610865  0.67783905     0.03400
C716        C  0.36887406  0.79944895  0.68761890    -0.10800
C717        C  0.36499661  0.81010525  0.73597844    -0.00800
C718        C  0.37698836  0.77950001  0.77072308    -0.06000
H719        H  0.44445649  0.70994021  0.70521310     0.06500
H720        H  0.34826895  0.84076471  0.74820984     0.09800
Br721      Br  0.39007048  0.63308708  0.71790506    -0.05700
Br722      Br  0.43212627  0.68446585  0.93282824    -0.02600
Br723      Br  0.44079666  0.76102421  0.62131432     0.00200
Br724      Br  0.35234578  0.79392945  0.83161523    -0.04200
C725        C  0.61233607  0.07128326  0.69986472    -0.11600
C726        C  0.60378389  0.07998536  0.74839415     0.03900
C727        C  0.64101710  0.08283042  0.77917041    -0.12100
C728        C  0.68530644  0.06851454  0.76593305     0.18800
C729        C  0.69131335  0.04775984  0.72193355    -0.09200
C730        C  0.65383328  0.04638491  0.69048771    -0.02100
H731        H  0.63489690  0.09316735  0.81503566     0.05300
C732        C  0.72399337  0.07820924  0.79821810     0.20700
H733        H  0.66273914  0.03750472  0.65512900     0.10500
C734        C  0.73791983  0.04555213  0.83046573    -0.15500
C735        C  0.77233567  0.05462570  0.86416042     0.03400
C736        C  0.79399945  0.09853860  0.86598248    -0.10800
C737        C  0.77522239  0.13191713  0.83534917    -0.00800
C738        C  0.74019202  0.12258729  0.80365947    -0.06000
H739        H  0.72020949  0.01305880  0.83054534     0.06500
H740        H  0.78483371  0.16733887  0.83939441     0.09800
Br741      Br  0.75166975  0.03538774  0.69636341    -0.05700
Br742      Br  0.55301005  0.05416761  0.78292755    -0.02600
Br743      Br  0.77772447  0.00733704  0.90951681     0.00200
Br744      Br  0.70867350  0.17364135  0.77714661    -0.04200
C745        C  0.63445572  0.12579714  0.63208319    -0.11600
C746        C  0.63138647  0.14754816  0.58745804     0.03900
C747        C  0.66524684  0.17970650  0.57399571    -0.12100
C748        C  0.70663427  0.18615984  0.59933565     0.18800
C749        C  0.71226422  0.16092164  0.64026880    -0.09200
C750        C  0.67475702  0.13687234  0.65816351    -0.02100
H751        H  0.65890141  0.20044740  0.54356606     0.05300
C752        C  0.73788055  0.22570092  0.58953981     0.20700
H753        H  0.67703116  0.12906913  0.69441591     0.10500
C754        C  0.71862473  0.26952828  0.58873086    -0.15500
C755        C  0.74636722  0.30784608  0.59775141     0.03400
C756        C  0.79333181  0.30213096  0.61502794    -0.10800
C757        C  0.81343197  0.25955984  0.60372195    -0.00800
C758        C  0.78683224  0.22227248  0.58949345    -0.06000
H759        H  0.68137001  0.27402015  0.58366383     0.06500
H760        H  0.85024842  0.25337141  0.60654396     0.09800
Br761      Br  0.76842683  0.15977096  0.67658488    -0.05700
Br762      Br  0.57869995  0.14505227  0.54647325    -0.02600
Br763      Br  0.71581388  0.36519671  0.58582578     0.00200
Br764      Br  0.81945337  0.16753490  0.57192890    -0.04200
C765        C  0.84740082  0.31171805  0.69083698    -0.11600
C766        C  0.88389060  0.27881081  0.68439909     0.03900
C767        C  0.89469764  0.24669915  0.71990621    -0.12100
C768        C  0.87326964  0.24843441  0.76429535     0.18800
C769        C  0.84571089  0.28760485  0.77331222    -0.09200
C770        C  0.83663950  0.31979689  0.73849322    -0.02100
H771        H  0.92178946  0.22170797  0.71333543     0.05300
C772        C  0.88066153  0.21202514  0.80177374     0.20700
H773        H  0.81663093  0.34936706  0.74903926     0.10500
C774        C  0.88616394  0.22513080  0.84848247    -0.15500
C775        C  0.87590165  0.19572215  0.88585892     0.03400
C776        C  0.86375389  0.14915001  0.87760380    -0.10800
C777        C  0.87646012  0.13387965  0.83185546    -0.00800
C778        C  0.87983835  0.16443651  0.79383758    -0.06000
H779        H  0.89693068  0.25966614  0.85608720     0.06500
H780        H  0.87399196  0.09795775  0.82361971     0.09800
Br781      Br  0.81297695  0.29739984  0.83049433    -0.05700
Br782      Br  0.92784289  0.28163916  0.63382722    -0.02600
Br783      Br  0.89653150  0.22045668  0.94359733     0.00200
Br784      Br  0.87728569  0.13825054  0.73270351    -0.04200
C785        C  0.59264661  0.30134627  0.85694645    -0.11600
C786        C  0.62311328  0.27961194  0.82423352     0.03900
C787        C  0.60626010  0.24911870  0.79107198    -0.12100
C788        C  0.56007135  0.23406704  0.79107456     0.18800
C789        C  0.53345028  0.24568843  0.83097355    -0.09200
C790        C  0.54812162  0.28095415  0.86119858    -0.02100
H791        H  0.63010117  0.23662120  0.76457645     0.05300
C792        C  0.54473730  0.20677646  0.74876385     0.20700
H793        H  0.52536540  0.28889627  0.88978094     0.10500
C794        C  0.52203088  0.16407571  0.75009865    -0.15500
C795        C  0.52556234  0.13372743  0.71148597     0.03400
C796        C  0.56046147  0.14136101  0.67804603    -0.10800
C797        C  0.57051668  0.18777716  0.67050124    -0.00800
C798        C  0.56100049  0.22038588  0.70449550    -0.06000
H799        H  0.50440611  0.15289955  0.78089153     0.06500
H800        H  0.58847599  0.19957327  0.64002439     0.09800
Br801      Br  0.48579040  0.20790267  0.85481238    -0.05700
Br802      Br  0.68894581  0.28678952  0.82178138    -0.02600
Br803      Br  0.48409141  0.08320151  0.70300121     0.00200
Br804      Br  0.57603078  0.28201525  0.68958685    -0.04200
C805        C  0.64609173  0.32508046  0.92051685    -0.11600
C806        C  0.69660182  0.32700916  0.92181969     0.03900
C807        C  0.72198115  0.29341657  0.94562711    -0.12100
C808        C  0.70009460  0.25726077  0.96758451     0.18800
C809        C  0.65174510  0.26032893  0.97520856    -0.09200
C810        C  0.62588396  0.29406484  0.95269912    -0.02100
H811        H  0.75968008  0.29202478  0.94181759     0.05300
C812        C  0.72634966  0.21347957  0.96858689     0.20700
H813        H  0.58837147  0.29199788  0.95628330     0.10500
C814        C  0.77090714  0.20994862  0.98952985    -0.15500
C815        C  0.80209047  0.17425977  0.97707740     0.03400
C816        C  0.79062514  0.14510004  0.93923320    -0.10800
C817        C  0.74164403  0.14131411  0.93169321    -0.00800
C818        C  0.71135704  0.17700825  0.94075728    -0.06000
H819        H  0.78146650  0.23493085  0.01523177     0.06500
H820        H  0.72631995  0.11316780  0.91320001     0.09800
Br821      Br  0.61760900  0.21594178  0.01036476    -0.05700
Br822      Br  0.74018252  0.36424339  0.88888678    -0.02600
Br823      Br  0.85022210  0.15937447  0.02137631     0.00200
Br824      Br  0.65412685  0.17618254  0.90546955    -0.04200
C825        C  0.62306184  0.38068853  0.84545172    -0.11600
C826        C  0.65953674  0.41347036  0.84599123     0.03900
C827        C  0.68157880  0.42463480  0.80393372    -0.12100
C828        C  0.66219658  0.41347576  0.76075440     0.18800
C829        C  0.61606589  0.39776996  0.76140170    -0.09200
C830        C  0.59700498  0.38068524  0.80307355    -0.02100
H831        H  0.71468286  0.44121851  0.80549512     0.05300
C832        C  0.69492200  0.39804903  0.72314509     0.20700
H833        H  0.56322925  0.36436560  0.80136511     0.10500
C834        C  0.70279657  0.35167865  0.72166387    -0.15500
C835        C  0.74135438  0.33297085  0.69965983     0.03400
C836        C  0.77475301  0.36065517  0.67553896    -0.10800
C837        C  0.76394836  0.40791548  0.67305874    -0.00800
C838        C  0.72306549  0.42602834  0.69494664    -0.06000
H839        H  0.67870028  0.32942649  0.73922682     0.06500
H840        H  0.78506207  0.43013519  0.65184091     0.09800
Br841      Br  0.58015017  0.39779524  0.70539992    -0.05700
Br842      Br  0.67852623  0.45112058  0.89765566    -0.02600
Br843      Br  0.74473753  0.26825454  0.70690350     0.00200
Br844      Br  0.70010201  0.48465862  0.67702193    -0.04200
C845        C  0.11872882  0.64316545  0.41338394    -0.11600
C846        C  0.14760888  0.63359151  0.45282646     0.03900
C847        C  0.17817445  0.66710041  0.47023709    -0.12100
C848        C  0.17686969  0.71252182  0.45449474     0.18800
C849        C  0.14481619  0.72273907  0.41885686    -0.09200
C850        C  0.12209348  0.68787695  0.39581322    -0.02100
H851        H  0.20424043  0.65696999  0.49539016     0.05300
C852        C  0.21586141  0.74477013  0.46589370     0.20700
H853        H  0.11006088  0.69666946  0.36167418     0.10500
C854        C  0.26222694  0.72921650  0.46404505    -0.15500
C855        C  0.29873349  0.75989740  0.45654254     0.03400
C856        C  0.28837989  0.80483669  0.44078944    -0.10800
C857        C  0.24525302  0.82190367  0.45776580    -0.00800
C858        C  0.20942093  0.79207723  0.47153000    -0.06000
H859        H  0.27027986  0.69329234  0.46621284     0.06500
H860        H  0.23973924  0.85750352  0.46370205     0.09800
Br861      Br  0.13169423  0.78190007  0.39410840    -0.05700
Br862      Br  0.15626728  0.57344966  0.47783471    -0.02600
Br863      Br  0.36107437  0.73870362  0.46845218     0.00200
Br864      Br  0.15453037  0.81655906  0.50126061    -0.04200
C865        C  0.06237531  0.62787658  0.34455319    -0.11600
C866        C  0.03228379  0.66581720  0.35418479     0.03900
C867        C  0.02846190  0.70094956  0.32081949    -0.12100
C868        C  0.04338473  0.69476423  0.27426503     0.18800
C869        C  0.05508052  0.64957535  0.26190381    -0.09200
C870        C  0.06936668  0.61910037  0.29637059    -0.02100
H871        H  0.01793499  0.73365200  0.33378860     0.05300
C872        C  0.05497956  0.73396051  0.24134022     0.20700
H873        H  0.08841890  0.59033821  0.28353933     0.10500
C874        C  0.09401674  0.72832878  0.21107147    -0.15500
C875        C  0.11063165  0.76259999  0.18006872     0.03400
C876        C  0.08428915  0.80508114  0.18026223    -0.10800
C877        C  0.04345859  0.80919131  0.20669452    -0.00800
C878        C  0.03115682  0.77658220  0.23971246    -0.06000
H879        H  0.11236302  0.69690732  0.21281529     0.06500
H880        H  0.02255022  0.83979425  0.20430641     0.09800
Br881      Br  0.05421452  0.62748459  0.19856003    -0.05700
Br882      Br  0.00904156  0.68062569  0.41519803    -0.02600
Br883      Br  0.20767094  0.76330528  0.09640159     0.00200
Br884      Br  0.98529172  0.79846134  0.28319880    -0.04200
C885        C  0.12772454  0.88251783  0.18352654    -0.11600
C886        C  0.17226042  0.90202713  0.17468017     0.03900
C887        C  0.20215397  0.91078014  0.21258313    -0.12100
C888        C  0.18861489  0.90142882  0.25900194     0.18800
C889        C  0.14066715  0.89310832  0.26682602    -0.09200
C890        C  0.11040522  0.88833416  0.22908115    -0.02100
H891        H  0.23810435  0.91841554  0.20467487     0.05300
C892        C  0.22544277  0.89143283  0.29521045     0.20700
H893        H  0.07432443  0.88249438  0.23692874     0.10500
C894        C  0.26584199  0.86734163  0.28191127    -0.15500
C895        C  0.30032071  0.85587198  0.31438837     0.03400
C896        C  0.29035986  0.85746871  0.36331587    -0.10800
C897        C  0.25372119  0.88777161  0.37539136    -0.00800
C898        C  0.22326249  0.90614374  0.34204915    -0.06000
H899        H  0.27223068  0.85942899  0.24558433     0.06500
H900        H  0.24932718  0.90032685  0.41000937     0.09800
Br901      Br  0.11410171  0.87671188  0.32561621    -0.05700
Br902      Br  0.20183043  0.90010820  0.11420235    -0.02600
Br903      Br  0.36136099  0.84506732  0.28831223     0.00200
Br904      Br  0.18528392  0.95602116  0.36218967    -0.04200
C905        C  0.33534820  0.78471101  0.37072510    -0.11600
C906        C  0.30163696  0.75701973  0.34708771     0.03900
C907        C  0.31491747  0.72043412  0.31929499    -0.12100
C908        C  0.36130593  0.70804833  0.31363744     0.18800
C909        C  0.39513158  0.73156777  0.34005785    -0.09200
C910        C  0.38255250  0.77045455  0.36673250    -0.02100
H911        H  0.28835866  0.70180597  0.30044346     0.05300
C912        C  0.37109027  0.67511095  0.27487896     0.20700
H913        H  0.40972701  0.78837627  0.38506831     0.10500
C914        C  0.36169608  0.68937920  0.22927029    -0.15500
C915        C  0.35852798  0.65817950  0.19225837     0.03400
C916        C  0.35655678  0.61042975  0.20103038    -0.10800
C917        C  0.37591462  0.59760629  0.24463114    -0.00800
C918        C  0.38161239  0.62885227  0.28161100    -0.06000
H919        H  0.35711446  0.72534479  0.22234976     0.06500
H920        H  0.38826621  0.56393708  0.25097306     0.09800
Br921      Br  0.45720844  0.70908947  0.34533069    -0.05700
Br922      Br  0.23577996  0.76765828  0.34643263    -0.02600
Br923      Br  0.35654096  0.68363494  0.13085832     0.00200
Br924      Br  0.40039135  0.60564399  0.34108802    -0.04200
C925        C  0.30002505  0.53603348  0.19379586    -0.11600
C926        C  0.25197480  0.52496922  0.18582597     0.03900
C927        C  0.22275563  0.52053138  0.22417778    -0.12100
C928        C  0.24130663  0.52003120  0.26925792     0.18800
C929        C  0.29007309  0.51232807  0.27366208    -0.09200
C930        C  0.31831217  0.51623904  0.23401477    -0.02100
H931        H  0.18536974  0.52167244  0.21860546     0.05300
C932        C  0.20893991  0.53302640  0.30768526     0.20700
H933        H  0.35438038  0.50574769  0.23514600     0.10500
C934        C  0.16405826  0.51405662  0.30845692    -0.15500
C935        C  0.12692325  0.53377258  0.33340456     0.03400
C936        C  0.13399384  0.57472094  0.36019208    -0.10800
C937        C  0.18067369  0.59156497  0.35996741    -0.00800
C938        C  0.21702964  0.57164525  0.33506725    -0.06000
H939        H  0.15690878  0.48514063  0.28605026     0.06500
H940        H  0.19012620  0.62351452  0.37556891     0.09800
Br941      Br  0.32152236  0.49900154  0.33083915    -0.05700
Br942      Br  0.22051401  0.52609034  0.12657564    -0.09400
Br943      Br  0.06796203  0.50720739  0.31564597     0.00200
Br944      Br  0.27419028  0.60530910  0.33425763    -0.04200
C945        C  0.14283237  0.81481611  0.12871455    -0.11600
C946        C  0.12004094  0.77142087  0.09880799     0.03900
C947        C  0.13349576  0.71930078  0.11346969    -0.12100
C948        C  0.17103140  0.70943247  0.15485668     0.18800
C949        C  0.19371695  0.75155223  0.18315819    -0.09200
C950        C  0.18134719  0.80251963  0.16995366    -0.02100
H951        H  0.12002566  0.69119599  0.09313324     0.05300
C952        C  0.19820246  0.66609162  0.15583310     0.20700
H953        H  0.19914943  0.82693479  0.19089621     0.10500
C954        C  0.22112458  0.65171950  0.11474274    -0.15500
C955        C  0.26160016  0.62419117  0.11590386     0.03400
C956        C  0.28027282  0.61030298  0.15965649    -0.10800
C957        C  0.25509990  0.62385343  0.20001773    -0.00800
C958        C  0.21365327  0.64823839  0.19838174    -0.06000
H959        H  0.20930797  0.66433691  0.08137769     0.06500
H960        H  0.26744754  0.61354761  0.23394067     0.09800
Br961      Br  0.24964005  0.74693087  0.21934546    -0.05700
Br962      Br  0.07517828  0.77922720  0.05009509    -0.02600
Br963      Br  0.28736945  0.60812263  0.05624171     0.00200
Br964      Br  0.18292361  0.65869659  0.25706136    -0.04200
C965        C  0.13496522  0.36060383  0.67656509    -0.11600
C966        C  0.13089436  0.39787503  0.70878302     0.03900
C967        C  0.17018104  0.41406693  0.73310435    -0.12100
C968        C  0.21428831  0.39352302  0.72857675     0.18800
C969        C  0.22015087  0.36038664  0.69428028    -0.09200
C970        C  0.18122409  0.34324390  0.67143054    -0.02100
H971        H  0.16506643  0.43928869  0.76031031     0.05300
C972        C  0.24560617  0.39233124  0.76969187     0.20700
H973        H  0.18845318  0.31193645  0.65458950     0.10500
C974        C  0.22600267  0.37798313  0.81164817    -0.15500
C975        C  0.25384230  0.37200571  0.85052303     0.03400
C976        C  0.30295250  0.36616009  0.84514189    -0.10800
C977        C  0.32227153  0.38919228  0.80654880    -0.00800
C978        C  0.29370241  0.40281425  0.76898254    -0.06000
H979        H  0.18845690  0.37530004  0.81542607     0.06500
H980        H  0.35844922  0.39860701  0.80597913     0.09800
Br981      Br  0.27918686  0.33038285  0.68316041    -0.05700
Br982      Br  0.07385427  0.42377710  0.73157723    -0.02600
Br983      Br  0.22386832  0.38442505  0.90924840     0.00200
Br984      Br  0.32061602  0.43732685  0.71928107    -0.04200
C985        C  0.10105374  0.14773225  0.89438667    -0.11600
C986        C  0.11434094  0.15722581  0.94115607     0.03900
C987        C  0.15226783  0.18715964  0.95016788    -0.12100
C988        C  0.16941446  0.21546507  0.91452304     0.18800
C989        C  0.14494570  0.21567269  0.87234266    -0.09200
C990        C  0.11703263  0.17903280  0.86103186    -0.02100
H991        H  0.16686251  0.18953644  0.98480807     0.05300
C992        C  0.21602276  0.23851969  0.91530128     0.20700
H993        H  0.10348895  0.17729608  0.82655659     0.10500
C994        C  0.24283415  0.23255790  0.87505731    -0.15500
C995        C  0.27297366  0.26628529  0.86083213     0.03400
C996        C  0.29182506  0.29771656  0.89385129    -0.10800
C997        C  0.27186120  0.29725850  0.93908833    -0.00800
C998        C  0.23015284  0.27252160  0.94718699    -0.06000
H999        H  0.23295461  0.20700595  0.84965775     0.06500
H1000       H  0.28315874  0.32190091  0.96477853     0.09800
Br1001     Br  0.14920600  0.26545528  0.82912012    -0.05700
Br1002     Br  0.07533411  0.14192388  0.99233257    -0.02600
Br1003     Br  0.28222949  0.26884401  0.79431773     0.00200
Br1004     Br  0.18739106  0.29616063  0.99219624    -0.04200
C1005       C  0.06559072  0.31135727  0.69610701    -0.11600
C1006       C  0.01861736  0.31692247  0.71342370     0.03900
C1007       C  0.00052750  0.28535886  0.74594907    -0.12100
C1008       C  0.02538416  0.24579702  0.75765503     0.18800
C1009       C  0.07116899  0.24164657  0.74093134    -0.09200
C1010       C  0.09195180  0.27720912  0.71752613    -0.02100
H1011       H  0.96639644  0.29106125  0.76113345     0.05300
C1012       C  0.00708797  0.21160766  0.79130607     0.20700
H1013       H  0.12778041  0.27328033  0.70790852     0.10500
C1014       C  0.99783571  0.16684618  0.77673699    -0.15500
C1015       C  0.00307021  0.13031809  0.80807843     0.03400
C1016       C  0.02473082  0.13888783  0.85193190    -0.10800
C1017       C  0.01492110  0.18302760  0.87004487    -0.00800
C1018       C  0.00944350  0.21988121  0.83951345    -0.06000
H1019       H  0.99066407  0.15988454  0.74036637     0.06500
H1020       H  0.02197991  0.19061156  0.90628867     0.09800
Br1021     Br  0.10424802  0.18556496  0.73692709    -0.05700
Br1022     Br  0.97621427  0.36595483  0.70057407    -0.02600
Br1023     Br  0.98633788  0.07065061  0.78542168     0.00200
Br1024     Br  0.01482667  0.28036832  0.86414652    -0.04200
C1025       C  0.35992724  0.13400927  0.68038214    -0.11600
C1026       C  0.36718754  0.18055700  0.66924392     0.03900
C1027       C  0.38054932  0.21108402  0.70416631    -0.12100
C1028       C  0.39376452  0.19617370  0.74879301     0.18800
C1029       C  0.39855087  0.14815555  0.75495451    -0.09200
C1030       C  0.38398851  0.11812626  0.71962766    -0.02100
H1031       H  0.37736386  0.24690547  0.69657592     0.05300
C1032       C  0.39563641  0.23090391  0.78780760     0.20700
H1033       H  0.38429250  0.08190497  0.72659177     0.10500
C1034       C  0.37867513  0.21986986  0.83224678    -0.15500
C1035       C  0.37310059  0.25318927  0.86662605     0.03400
C1036       C  0.36834289  0.29969970  0.85312483    -0.10800
C1037       C  0.39400771  0.31096674  0.81279431    -0.00800
C1038       C  0.40902064  0.27701323  0.78108671    -0.06000
H1039       H  0.36818631  0.18586057  0.84091148     0.06500
H1040       H  0.40456295  0.34527564  0.80630436     0.09800
Br1041     Br  0.41981235  0.11837725  0.81067487    -0.05700
Br1042     Br  0.36075386  0.20528356  0.60761914    -0.02600
Br1043     Br  0.36719077  0.23185693  0.92969761     0.00200
Br1044     Br  0.44948223  0.29575103  0.73137383    -0.04200
C1045       C  0.10920140  0.29544942  0.61890066    -0.11600
C1046       C  0.09631127  0.24868766  0.62023542     0.03900
C1047       C  0.12963458  0.21518456  0.60928104    -0.12100
C1048       C  0.17401859  0.22771750  0.59360253     0.18800
C1049       C  0.17951823  0.27289083  0.57756888    -0.09200
C1050       C  0.14411552  0.30542272  0.58581173    -0.02100
H1051       H  0.12220410  0.17983764  0.61674031     0.05300
C1052       C  0.21423954  0.19714462  0.60506694     0.20700
H1053       H  0.15127520  0.34069766  0.57773242     0.10500
C1054       C  0.23340537  0.16602284  0.57283001    -0.15500
C1055       C  0.26964540  0.13529764  0.58547918     0.03400
C1056       C  0.28605828  0.13403573  0.63227579    -0.10800
C1057       C  0.26481376  0.16493404  0.66365031    -0.00800
C1058       C  0.23081361  0.19561072  0.65088895    -0.06000
H1059       H  0.21922096  0.16480231  0.53818212     0.06500
H1060       H  0.27598349  0.16664362  0.69947913     0.09800
Br1061     Br  0.23844169  0.29691291  0.56027974    -0.05700
Br1062     Br  0.03413955  0.22800947  0.63159075    -0.02600
Br1063     Br  0.29319434  0.09674609  0.53726445     0.00200
Br1064     Br  0.20896405  0.23287050  0.70041928    -0.04200
C1065       C  0.09985358  0.08165558  0.84110332    -0.11600
C1066       C  0.13998671  0.05690428  0.85777941     0.03900
C1067       C  0.17296609  0.03813749  0.82664829    -0.12100
C1068       C  0.17135963  0.04745558  0.77895805     0.18800
C1069       C  0.13042171  0.06678057  0.76129873    -0.09200
C1070       C  0.09694031  0.08456665  0.79183330    -0.02100
H1071       H  0.20414346  0.02215593  0.84052698     0.05300
C1072       C  0.21577178  0.05024108  0.75169280     0.20700
H1073       H  0.07219166  0.10506288  0.77459604     0.10500
C1074       C  0.21973013  0.03108947  0.70704795    -0.15500
C1075       C  0.25593845  0.04327882  0.67619709     0.03400
C1076       C  0.29232470  0.07397509  0.69042690    -0.10800
C1077       C  0.28865441  0.08914903  0.73761000    -0.00800
C1078       C  0.25212854  0.07819599  0.76727577    -0.06000
H1079       H  0.19252001  0.00843624  0.69498028     0.06500
H1080       H  0.30892283  0.11648144  0.75134273     0.09800
Br1081     Br  0.12004752  0.07527287  0.69552137    -0.05700
Br1082     Br  0.16208639  0.05605937  0.92101422    -0.02600
Br1083     Br  0.24470594  0.02180116  0.61413551     0.00200
Br1084     Br  0.25139964  0.11006080  0.82621028    -0.04200
C1085       C  0.09000003  0.13389630  0.18132386    -0.11600
C1086       C  0.11747760  0.15266595  0.21774570     0.03900
C1087       C  0.09732692  0.18049719  0.25112308    -0.12100
C1088       C  0.05587014  0.20411224  0.24243736     0.18800
C1089       C  0.03561868  0.19702724  0.19786728    -0.09200
C1090       C  0.04788024  0.15758889  0.17186713    -0.02100
H1091       H  0.11681226  0.18665061  0.28260989     0.05300
C1092       C  0.04010216  0.23661384  0.28038684     0.20700
H1093       H  0.02822302  0.14966854  0.14078213     0.10500
C1094       C  0.03693277  0.28373374  0.27352745    -0.15500
C1095       C  0.04342488  0.31462450  0.31090647     0.03400
C1096       C  0.06123748  0.29898608  0.35503273    -0.10800
C1097       C  0.05511722  0.25185360  0.36268652    -0.00800
C1098       C  0.04191608  0.22177257  0.32700709    -0.06000
H1099       H  0.03316829  0.29720142  0.23882496     0.06500
H1100       H  0.06407507  0.23613895  0.39472114     0.09800
Br1101     Br  0.00544084  0.24469638  0.16376348    -0.05700
Br1102     Br  0.18386017  0.15000015  0.22104923    -0.02600
Br1103     Br  0.03381598  0.37732423  0.29512440     0.00200
Br1104     Br  0.03424206  0.15867578  0.34247266    -0.04200
C1105       C  0.29773960  0.12533026  0.42383808    -0.11600
C1106       C  0.24947615  0.11535634  0.43030645     0.03900
C1107       C  0.21832132  0.15045746  0.44270675    -0.12100
C1108       C  0.23512812  0.19397241  0.45408167     0.18800
C1109       C  0.28387505  0.19693755  0.46422213    -0.09200
C1110       C  0.31413799  0.16112563  0.45151861    -0.02100
H1111       H  0.18113479  0.14423264  0.44082440     0.05300
C1112       C  0.20234221  0.23427025  0.44949155     0.20700
H1113       H  0.35137242  0.16496616  0.45683144     0.10500
C1114       C  0.15603330  0.23337438  0.46651584    -0.15500
C1115       C  0.12151873  0.26557296  0.45225116     0.03400
C1116       C  0.13211602  0.29954298  0.41777555    -0.10800
C1117       C  0.18116674  0.30413047  0.40984323    -0.00800
C1118       C  0.21402366  0.27105329  0.42117790    -0.06000
H1119       H  0.14606709  0.20636129  0.49002146     0.06500
H1120       H  0.19599909  0.33130394  0.39015433     0.09800
Br1121     Br  0.31406519  0.24861227  0.49110490    -0.05700
Br1122     Br  0.22503843  0.05474992  0.42681645    -0.02600
Br1123     Br  0.06218410  0.25847150  0.48283646     0.00200
Br1124     Br  0.27104455  0.27445396  0.38701985    -0.04200
C1125       C  0.29666381  0.08032342  0.34870639    -0.11600
C1126       C  0.26019596  0.10667333  0.32857202     0.03900
C1127       C  0.22439511  0.08549872  0.30467636    -0.12100
C1128       C  0.22900132  0.04174124  0.28599256     0.18800
C1129       C  0.27129880  0.01845978  0.29660938    -0.09200
C1130       C  0.30085383  0.03507765  0.33228177    -0.02100
H1131       H  0.19332171  0.10517781  0.29861318     0.05300
C1132       C  0.19044650  0.02708077  0.25305416     0.20700
H1133       H  0.32950746  0.01390865  0.34375648     0.10500
C1134       C  0.19948480  0.01542511  0.20597756    -0.15500
C1135       C  0.16723645  0.02760076  0.17057055     0.03400
C1136       C  0.13090942  0.05773849  0.18209482    -0.10800
C1137       C  0.11381745  0.05330078  0.22802400    -0.00800
C1138       C  0.14342965  0.03892231  0.26370793    -0.06000
H1139       H  0.23296293  0.00193079  0.19546809     0.06500
H1140       H  0.07997186  0.06712497  0.23751713     0.09800
Br1141     Br  0.29706163  0.97083096  0.25948734    -0.05700
Br1142     Br  0.25391633  0.17159765  0.33199333    -0.02600
Br1143     Br  0.17645136  0.00828562  0.10716938     0.00200
Br1144     Br  0.12006727  0.04676068  0.32609949    -0.04200
C1145       C  0.36156616  0.13534101  0.35592842    -0.11600
C1146       C  0.38870348  0.11912710  0.31720694     0.03900
C1147       C  0.40181471  0.14890723  0.28104436    -0.12100
C1148       C  0.39352618  0.19594789  0.28441058     0.18800
C1149       C  0.37952758  0.21294399  0.32783263    -0.09200
C1150       C  0.36154772  0.18353439  0.36139795    -0.02100
H1151       H  0.41681591  0.13506547  0.24929652     0.05300
C1152       C  0.38853337  0.22503574  0.24185390     0.20700
H1153       H  0.34513331  0.20121627  0.38927232     0.10500
C1154       C  0.41145164  0.26708434  0.23760906    -0.15500
C1155       C  0.39663799  0.30058041  0.20574915     0.03400
C1156       C  0.35508809  0.29387203  0.17908671    -0.10800
C1157       C  0.33762543  0.24845942  0.17895842    -0.00800
C1158       C  0.35336117  0.21511616  0.20955584    -0.06000
H1159       H  0.43894450  0.27551852  0.26174239     0.06500
H1160       H  0.30860436  0.23792713  0.15790809     0.09800
Br1161     Br  0.38250480  0.27645710  0.34314920    -0.05700
Br1162     Br  0.40948536  0.05734790  0.31002278    -0.02600
Br1163     Br  0.42997372  0.35736490  0.20865064     0.00200
Br1164     Br  0.31931549  0.15891187  0.21002059    -0.04200
C1165       C  0.30427017  0.36765523  0.19376397    -0.11600
C1166       C  0.26606848  0.39796411  0.18368662     0.03900
C1167       C  0.23649738  0.41372528  0.21980745    -0.12100
C1168       C  0.24459300  0.40344825  0.26693852     0.18800
C1169       C  0.28748211  0.38272805  0.27736467    -0.09200
C1170       C  0.31534104  0.36385675  0.24188756    -0.02100
H1171       H  0.20332006  0.42896379  0.21043727     0.05300
C1172       C  0.20246437  0.39295113  0.29632038     0.20700
H1173       H  0.34376331  0.34362983  0.25418515     0.10500
C1174       C  0.17811511  0.35467857  0.28144990    -0.15500
C1175       C  0.14726789  0.33267443  0.31083906     0.03400
C1176       C  0.12704493  0.35533358  0.35029497    -0.10800
C1177       C  0.14877516  0.39672742  0.36318816    -0.00800
C1178       C  0.18913011  0.41229709  0.33998818    -0.06000
H1179       H  0.19009764  0.33663631  0.25065872     0.06500
H1180       H  0.14029755  0.41217187  0.39642813     0.09800
Br1181     Br  0.30763313  0.37417039  0.34005511    -0.05700
Br1182     Br  0.24228188  0.40944123  0.12203243    -0.02600
Br1183     Br  0.15252642  0.26813971  0.30426920     0.00200
Br1184     Br  0.22728356  0.45133566  0.37698162    -0.04200
C1185       C  0.28485786  0.31085982  0.12778897    -0.11600
C1186       C  0.29053094  0.28620694  0.08473887     0.03900
C1187       C  0.25623726  0.25574719  0.06962587    -0.12100
C1188       C  0.21549173  0.24816081  0.09516532     0.18800
C1189       C  0.20790881  0.27359972  0.13584878    -0.09200
C1190       C  0.24240530  0.30272414  0.15221456    -0.02100
H1191       H  0.26324080  0.23433773  0.03949672     0.05300
C1192       C  0.19146597  0.20412432  0.08899935     0.20700
H1193       H  0.23701569  0.31545061  0.18704094     0.10500
C1194       C  0.21721780  0.16562708  0.10037849    -0.15500
C1195       C  0.19578181  0.12587869  0.11603274     0.03400
C1196       C  0.14515399  0.12313753  0.11677153    -0.10800
C1197       C  0.12201985  0.15839305  0.09205685    -0.00800
C1198       C  0.14350300  0.19963903  0.08177435    -0.06000
H1199       H  0.25482704  0.16909811  0.10347133     0.06500
H1200       H  0.08470132  0.15722456  0.08761964     0.09800
Br1201     Br  0.15497160  0.26413439  0.17567848    -0.05700
Br1202     Br  0.34618820  0.28100603  0.04805523    -0.02600
Br1203     Br  0.24464862  0.08803860  0.14112473     0.00200
Br1204     Br  0.10437028  0.24960957  0.06372883    -0.04200
loop_ 
_geom_bond_atom_site_label_1 
_geom_bond_atom_site_label_2 
_geom_bond_distance 
_geom_bond_site_symmetry_2 
_ccdc_geom_bond_type 
C1            C9   1.549       .  S
C1         C1156   1.591       .  S
C1         C1165   1.599       .  S
C1         C1185   1.578       .  S
C2           C96   1.550       .  S
C2         C1105   1.576       .  S
C2         C1125   1.562       .  S
C2         C1145   1.595       .  S
C3          C135   1.555       .  S
C3         C1085   1.575       .  S
C3         C1136   1.565       .  S
C3         C1196   1.587       .  S
C4          C222   1.577       .  S
C4         C1096   1.597       .  S
C4         C1116   1.626       .  S
C4         C1176   1.577       .  S
C5          C106   1.562       .  S
C5         C1025   1.578       .  S
C5         C1056   1.567       .  S
C5         C1076   1.596       .  S
C6          C165   1.552       .  S
C6          C985   1.576       .  S
C6         C1016   1.604       .  S
C6         C1065   1.593       .  S
C7          C192   1.527       .  S
C7          C965   1.598       .  S
C7         C1005   1.571       .  S
C7         C1045   1.596       .  S
C8           C29   1.538       .  S
C8          C976   1.575       .  S
C8          C996   1.571       .  S
C8         C1036   1.593       .  S
C9           N27   1.356       .  A
C9           C46   1.473       .  S
N10          N27   1.328       .  A
N10          N32   1.320       .  A
N10         Co47   2.115       .  S
C11          N36   1.319       .  A
C11          C49   1.453       .  S
C11          H56   1.057       .  S
H12          C53   1.081       .  S
C13          N37   1.340       .  A
C13          C17   1.480       .  S
C13          H42   1.080       .  S
Co14         N32   2.099       .  S
Co14         N22   2.081       .  S
Co14         N54   2.073   1_554  S
Co14         N30   2.123   1_554  S
Co14        Cl58   2.465       .  S
N15          C53   1.346       .  A
N15          N22   1.315       .  A
N15         Co16   2.120       .  S
Co16         N19   2.076       .  S
Co16         N36   2.054   1_554  S
Co16         N23   2.136   1_554  S
Co16        Cl58   2.441       .  S
C17         C129   1.541       .  S
C17          N55   1.352       .  A
N18          N25   1.322       .  A
N18          N48   1.337       .  A
N18         Co51   2.133       .  S
N19          N37   1.319       .  A
N19          N55   1.325       .  A
N20          C49   1.370       .  A
N20          N30   1.336       .  A
H21          C46   1.081       .  S
N22          N43   1.327       .  A
N23          N41   1.319       .  A
N23          N28   1.331       .  A
C24         C131   1.543       .  S
C24          N28   1.364       .  A
C24          C52   1.469       .  S
N25          C40   1.330       .  A
N25         Co47   2.081       .  S
C26          N54   1.334       .  A
C26          C29   1.456       .  S
C26          H60   1.081       .  S
C29          N50   1.366       .  A
N30          N36   1.312       .  A
N31          C57   1.348       .  A
N31          N33   1.323       .  A
N31         Co47   2.130   1_556  S
N32          C46   1.345       .  A
N33          N61   1.327       .  A
N33         Co51   2.100   1_556  S
H34          C57   1.081       .  S
H35          C52   1.078       .  S
N37         Co51   2.100       .  S
N38          N50   1.336       .  A
N38          N54   1.322       .  A
N38         Co47   2.136   1_556  S
C39         C190   1.559       .  S
C39          N43   1.351       .  A
C39          C53   1.488       .  S
C40          C59   1.462       .  S
C40          H44   1.076       .  S
N41          C52   1.345       .  A
N41         Co51   2.091   1_556  S
C45         C123   1.558       .  S
C45          N61   1.352       .  A
C45          C57   1.487       .  S
Co47        Cl58   2.470       .  S
N48          C59   1.365       .  A
C49         C119   1.560       .  S
Co51        Cl58   2.476       .  S
C59          C62   1.538       .  S
C62         C916   1.601       .  S
C62         C925   1.586       .  S
C62         C956   1.573       .  S
C63         C155   1.535       .  S
C63         C876   1.561       .  S
C63         C885   1.571       .  S
C63         C945   1.515       .  S
C64         C200   1.554       .  S
C64         C845   1.582       .  S
C64         C865   1.592       .  S
C64         C936   1.590       .  S
C65          C66   1.558       .  S
C65         C856   1.590       .  S
C65         C896   1.594       .  S
C65         C905   1.580       .  S
C66          N84   1.365       .  A
C66         C103   1.478       .  S
N67          N84   1.337       .  A
N67          N89   1.320       .  A
N67        Co104   2.127       .  S
C68          N93   1.345       .  A
C68         C106   1.478       .  S
C68         H113   1.081       .  S
H69         C110   1.081       .  S
C70          N94   1.349       .  A
C70          C74   1.480       .  S
C70          H99   1.081       .  S
Co71         N89   2.105       .  S
Co71         N79   2.151   1_565  S
Co71        N111   2.131       .  S
Co71         N87   2.114   1_565  S
Co71       Cl115   2.473       .  S
N72         C110   1.342       .  A
N72          N79   1.321       .  A
N72         Co73   2.094       .  S
Co73         N76   2.117       .  S
Co73         N93   2.113       .  S
Co73         N80   2.102       .  S
Co73       Cl115   2.455   1_545  S
C74         C188   1.563       .  S
C74         N112   1.355       .  A
N75          N82   1.321       .  A
N75         N105   1.333       .  A
N75        Co108   2.138       .  S
N76          N94   1.321       .  A
N76         N112   1.328       .  A
N77         C106   1.358       .  A
N77          N87   1.333       .  A
H78         C103   1.074       .  S
N79         N100   1.337       .  A
N80          N98   1.321       .  A
N80          N85   1.329       .  A
C81         C121   1.545       .  S
C81          N85   1.357       .  A
C81         C109   1.476       .  S
N82          C97   1.339       .  A
N82        Co104   2.086       .  S
C83         N111   1.349       .  A
C83          C86   1.487       .  S
C83         H117   1.079       .  S
C86         C124   1.543       .  S
C86         N107   1.344       .  A
N87          N93   1.320       .  A
N88         C114   1.351       .  A
N88          N90   1.320       .  A
N88        Co104   2.132       .  S
N89         C103   1.336       .  A
N90         N118   1.330       .  A
N90        Co108   2.099       .  S
H91         C114   1.071       .  S
H92         C109   1.077       .  S
N94        Co108   2.109   1_545  S
N95         N107   1.321       .  A
N95         N111   1.319       .  A
N95        Co104   2.065       .  S
C96         N100   1.368       .  A
C96         C110   1.467       .  S
C97         C116   1.461       .  S
C97         H101   1.081       .  S
N98         C109   1.342       .  A
N98        Co108   2.112   1_545  S
C102        C133   1.556       .  S
C102        N118   1.358       .  A
C102        C114   1.479       .  S
Co104      Cl115   2.457       .  S
N105        C116   1.367       .  A
Co108      Cl115   2.490       .  S
C116        C127   1.534       .  S
C119        C785   1.589       .  S
C119        C805   1.588       .  S
C119        C825   1.589       .  S
C120        C212   1.570       .  S
C120        C756   1.597       .  S
C120        C765   1.614       .  S
C120        C836   1.583       .  S
C121        C725   1.599       .  S
C121        C745   1.589       .  S
C121        C796   1.573       .  S
C122        C143   1.545       .  S
C122        C736   1.582       .  S
C122        C776   1.621       .  S
C122        C816   1.595       .  S
C123        C665   1.581       .  S
C123        C696   1.583       .  S
C123        C705   1.588       .  S
C124        C625   1.594       .  S
C124        C645   1.565       .  S
C124        C716   1.606       .  S
C125        C242   1.563       .  S
C125        C605   1.577       .  S
C125        C636   1.585       .  S
C125        C676   1.588       .  S
C126        C175   1.565       .  S
C126        C616   1.592       .  S
C126        C656   1.585       .  S
C126        C685   1.590       .  S
C127        C545   1.575       .  S
C127        C576   1.576       .  S
C127        C585   1.590       .  S
C128        C207   1.550       .  S
C128        C505   1.593       .  S
C128        C525   1.579       .  S
C128        C596   1.578       .  S
C129        C496   1.587       .  S
C129        C516   1.579       .  S
C129        C556   1.564       .  S
C130        C171   1.539       .  S
C130        C485   1.585       .  S
C130        C536   1.592       .  S
C130        C565   1.603       .  S
C131        C425   1.581       .  S
C131        C445   1.588       .  S
C131        C465   1.584       .  S
C132        C228   1.543       .  S
C132        C385   1.588       .  S
C132        C405   1.585       .  S
C132        C456   1.585       .  S
C133        C365   1.592       .  S
C133        C396   1.572       .  S
C133        C436   1.606       .  S
C134        C150   1.569       .  S
C134        C376   1.582       .  S
C134        C416   1.581       .  S
C134        C476   1.588       .  S
C135        N153   1.364       .  A
C135        C172   1.471       .  S
N136        N153   1.335       .  A
N136        N158   1.323       .  A
N136       Co173   2.137   1_445  S
C137        N162   1.337   1_455  A
C137        C175   1.478       .  S
C137        H182   1.070   1_455  S
H138        C179   1.074       .  S
C139        N163   1.350       .  A
C139        C143   1.484       .  S
C139        H168   1.082   1_556  S
Co140       N158   2.110   1_565  S
Co140       N148   2.126   1_564  S
Co140       N180   2.132       .  S
Co140       N156   2.105   1_554  S
Co140      Cl184   2.483   1_455  S
N141        C179   1.336       .  A
N141        N148   1.315   1_655  A
N141       Co142   2.073   1_545  S
Co142       N145   2.098   1_565  S
Co142       N162   2.111       .  S
Co142       N149   2.094       .  S
Co142      Cl184   2.452   1_556  S
C143        N181   1.353       .  A
N144        N151   1.318       .  A
N144        N174   1.327       .  A
N144       Co177   2.120   1_545  S
N145        N163   1.320       .  A
N145        N181   1.330       .  A
N146        C175   1.358       .  A
N146        N156   1.330       .  A
H147        C172   1.081       .  S
N148        N169   1.331       .  A
N149        N167   1.316       .  A
N149        N154   1.330       .  A
C150        N154   1.360       .  A
C150        C178   1.483       .  S
N151        C166   1.346       .  A
N151       Co173   2.094   1_545  S
C152        N180   1.350       .  A
C152        C155   1.481       .  S
C152        H186   1.081       .  S
C155        N176   1.353       .  A
N156        N162   1.318   1_455  A
N157        C183   1.350       .  A
N157        N159   1.322       .  A
N157       Co173   2.143       .  S
N158        C172   1.343       .  A
N159        N187   1.328       .  A
N159       Co177   2.093       .  S
H160        C183   1.082       .  S
H161        C178   1.075       .  S
N163       Co177   2.128   1_546  S
N164        N176   1.326       .  A
N164        N180   1.322       .  A
N164       Co173   2.092   1_455  S
C165        N169   1.364       .  A
C165        C179   1.461   1_455  S
C166        C185   1.474       .  S
C166        H170   1.081       .  S
N167        C178   1.349       .  A
N167       Co177   2.129   1_556  S
C171        N187   1.355       .  A
C171        C183   1.483       .  S
Co173      Cl184   2.461       .  S
N174        C185   1.360       .  A
Co177      Cl184   2.468       .  S
C185        C189   1.560       .  S
C188        C316   1.577       .  S
C188        C336   1.570       .  S
C188        C356   1.576       .  S
C189        C265   1.597       .  S
C189        C285   1.582       .  S
C189        C345   1.584       .  S
C190        C256   1.576       .  S
C190        C276   1.597       .  S
C190        C305   1.598       .  S
C191        C232   1.525       .  S
C191        C245   1.595       .  S
C191        C296   1.588       .  S
C191        C325   1.563       .  S
C192        N210   1.349       .  A
C192        C229   1.466       .  S
N193        N210   1.326       .  A
N193        N215   1.317       .  A
N193       Co230   2.081   1_455  S
C194        N219   1.346       .  A
C194        C232   1.473       .  S
C194        H239   1.082       .  S
H195        C236   1.075       .  S
C196        N220   1.347       .  A
C196        C200   1.479       .  S
C196        H225   1.080       .  S
Co197       N215   2.071   1_655  S
Co197       N205   2.121   1_655  S
Co197       N237   2.120       .  S
Co197       N213   2.077       .  S
Co197      Cl241   2.460       .  S
N198        C236   1.350       .  A
N198        N205   1.320       .  A
N198       Co199   2.137   1_455  S
Co199       N202   2.102   1_655  S
Co199       N219   2.102       .  S
Co199       N206   2.111       .  S
Co199      Cl241   2.472       .  S
C200        N238   1.349       .  A
N201        N208   1.321       .  A
N201        N231   1.330       .  A
N201       Co234   2.122   1_455  S
N202        N220   1.320       .  A
N202        N238   1.324       .  A
N203        C232   1.351       .  A
N203        N213   1.322       .  A
H204        C229   1.079       .  S
N205        N226   1.333       .  A
N206        N224   1.322       .  A
N206        N211   1.329       .  A
C207        N211   1.359       .  A
C207        C235   1.479       .  S
N208        C223   1.348       .  A
N208       Co230   2.111   1_455  S
C209        N237   1.345       .  A
C209        C212   1.473       .  S
C209        H243   1.080       .  S
C212        N233   1.370       .  A
N213        N219   1.318       .  A
N214        C240   1.336       .  A
N214        N216   1.321       .  A
N214       Co230   2.075       .  S
N215        C229   1.331       .  A
N216        N244   1.332       .  A
N216       Co234   2.130       .  S
H217        C240   1.081       .  S
H218        C235   1.078       .  S
N220       Co234   2.107   1_455  S
N221        N233   1.342       .  A
N221        N237   1.323       .  A
N221       Co230   2.161       .  S
C222        N226   1.358       .  A
C222        C236   1.487       .  S
C223        C242   1.479       .  S
C223        H227   1.080       .  S
N224        C235   1.344       .  A
N224       Co234   2.117       .  S
C228        N244   1.363       .  A
C228        C240   1.464       .  S
Co230      Cl241   2.480       .  S
N231        C242   1.356       .  A
Co234      Cl241   2.461       .  S
C245        C246   1.438       .  A
C245        C250   1.422       .  A
C246        C247   1.412       .  A
C246       Br262   1.904       .  S
C247        H251   1.083       .  S
C247        C248   1.395       .  A
C248        C252   1.490       .  S
C248        C249   1.398       .  A
C249        C250   1.393       .  A
C249       Br261   1.924       .  S
C250        H253   1.063       .  S
C252        C254   1.405       .  A
C252        C258   1.398       .  A
C254        H259   1.080       .  S
C254        C255   1.418       .  A
C255        C256   1.433       .  A
C255       Br263   1.924       .  S
C256        C257   1.413       .  A
C257        H260   1.075       .  S
C257        C258   1.375       .  A
C258       Br264   1.906       .  S
C265        C266   1.448       .  A
C265        C270   1.426       .  A
C266        C267   1.396       .  A
C266       Br282   1.916       .  S
C267        H271   1.084       .  S
C267        C268   1.384       .  A
C268        C272   1.481       .  S
C268        C269   1.399       .  A
C269        C270   1.402       .  A
C269       Br281   1.916       .  S
C270        H273   1.072       .  S
C272        C274   1.395       .  A
C272        C278   1.394       .  A
C274        H279   1.084       .  S
C274        C275   1.409       .  A
C275        C276   1.441       .  A
C275       Br283   1.909       .  S
C276        C277   1.428       .  A
C277        H280   1.067       .  S
C277        C278   1.390       .  A
C278       Br284   1.919       .  S
C285        C286   1.425       .  A
C285        C290   1.423       .  A
C286        C287   1.412       .  A
C286       Br302   1.923       .  S
C287        H291   1.063       .  S
C287        C288   1.403       .  A
C288        C292   1.532       .  S
C288        C289   1.422       .  A
C289        C290   1.406       .  A
C289       Br301   1.924       .  S
C290        H293   1.075       .  S
C292        C294   1.407       .  A
C292        C298   1.434       .  A
C294        H299   1.079       .  S
C294        C295   1.409       .  A
C295        C296   1.428       .  A
C295       Br303   1.922       .  S
C296        C297   1.400       .  A
C297        H300   1.083       .  S
C297        C298   1.411       .  A
C298       Br304   1.920       .  S
C305        C306   1.433       .  A
C305        C310   1.411       .  A
C306        C307   1.421       .  A
C306       Br322   1.921       .  S
C307        H311   1.081       .  S
C307        C308   1.414       .  A
C308        C312   1.528       .  S
C308        C309   1.426       .  A
C309        C310   1.398       .  A
C309       Br321   1.927       .  S
C310        H313   1.080       .  S
C312        C314   1.401       .  A
C312        C318   1.422       .  A
C314        H319   1.081       .  S
C314        C315   1.405       .  A
C315        C316   1.435       .  A
C315       Br323   1.928       .  S
C316        C317   1.418       .  A
C317        H320   1.079       .  S
C317        C318   1.415       .  A
C318       Br324   1.915       .  S
C325        C326   1.436       .  A
C325        C330   1.410       .  A
C326        C327   1.412       .  A
C326       Br342   1.909       .  S
C327        H331   1.083       .  S
C327        C328   1.398       .  A
C328        C332   1.484       .  S
C328        C329   1.400       .  A
C329        C330   1.379       .  A
C329       Br341   1.902       .  S
C330        H333   1.082       .  S
C332        C334   1.390       .  A
C332        C338   1.404       .  A
C334        H339   1.085       .  S
C334        C335   1.390       .  A
C335        C336   1.437       .  A
C335       Br343   1.924       .  S
C336        C337   1.418       .  A
C337        H340   1.082       .  S
C337        C338   1.413       .  A
C338       Br344   1.913       .  S
C345        C346   1.435       .  A
C345        C350   1.424       .  A
C346        C347   1.410       .  A
C346       Br362   1.922       .  S
C347        H351   1.083   1_545  S
C347        C348   1.401       .  A
C348        C352   1.476       .  S
C348        C349   1.390       .  A
C349        C350   1.394       .  A
C349       Br361   1.918       .  S
C350        H353   1.066       .  S
C352        C354   1.394       .  A
C352        C358   1.405       .  A
C354        H359   1.082       .  S
C354        C355   1.385       .  A
C355        C356   1.416       .  A
C355       Br363   1.921       .  S
C356        C357   1.417       .  A
C357        H360   1.072       .  S
C357        C358   1.418       .  A
C358       Br364   1.912   1_545  S
C365        C366   1.402       .  A
C365        C370   1.423       .  A
C366        C367   1.425       .  A
C366       Br382   1.920       .  S
C367        H371   1.082       .  S
C367        C368   1.423       .  A
C368        C372   1.506       .  S
C368        C369   1.409       .  A
C369        C370   1.398       .  A
C369       Br381   1.913       .  S
C370        H373   1.083       .  S
C372        C374   1.392       .  A
C372        C378   1.415       .  A
C374        H379   1.081       .  S
C374        C375   1.396       .  A
C375        C376   1.438       .  A
C375       Br383   1.911       .  S
C376        C377   1.415       .  A
C377        H380   1.077       .  S
C377        C378   1.411       .  A
C378       Br384   1.911       .  S
C385        C386   1.422       .  A
C385        C390   1.420       .  A
C386        C387   1.405       .  A
C386       Br402   1.912       .  S
C387        H391   1.084       .  S
C387        C388   1.398       .  A
C388        C392   1.481       .  S
C388        C389   1.407       .  A
C389        C390   1.401       .  A
C389       Br401   1.920       .  S
C390        H393   1.083       .  S
C392        C394   1.405       .  A
C392        C398   1.395       .  A
C394        H399   1.083       .  S
C394        C395   1.410       .  A
C395        C396   1.424       .  A
C395       Br403   1.900       .  S
C396        C397   1.416       .  A
C397        H400   1.082       .  S
C397        C398   1.379       .  A
C398       Br404   1.909       .  S
C405        C406   1.408       .  A
C405        C410   1.419       .  A
C406        C407   1.410       .  A
C406       Br422   1.912       .  S
C407        H411   1.079       .  S
C407        C408   1.418       .  A
C408        C412   1.506       .  S
C408        C409   1.410       .  A
C409        C410   1.397       .  A
C409       Br421   1.903       .  S
C410        H413   1.081       .  S
C412        C414   1.396       .  A
C412        C418   1.427       .  A
C414        H419   1.083       .  S
C414        C415   1.390       .  A
C415        C416   1.419       .  A
C415       Br423   1.903       .  S
C416        C417   1.416       .  A
C417        H420   1.083       .  S
C417        C418   1.413       .  A
C418       Br424   1.916       .  S
C425        C426   1.434       .  A
C425        C430   1.420       .  A
C426        C427   1.422       .  A
C426       Br442   1.912       .  S
C427        H431   1.079       .  S
C427        C428   1.406       .  A
C428        C432   1.501       .  S
C428        C429   1.397       .  A
C429        C430   1.391       .  A
C429       Br441   1.906       .  S
C430        H433   1.082       .  S
C432        C434   1.395       .  A
C432        C438   1.398       .  A
C434        H439   1.085       .  S
C434        C435   1.409       .  A
C435        C436   1.444       .  A
C435       Br443   1.909       .  S
C436        C437   1.435       .  A
C437        H440   1.080       .  S
C437        C438   1.411       .  A
C438       Br444   1.917       .  S
C445        C446   1.429       .  A
C445        C450   1.424       .  A
C446        C447   1.402       .  A
C446       Br462   1.912       .  S
C447        H451   1.082       .  S
C447        C448   1.399       .  A
C448        C452   1.475       .  S
C448        C449   1.394       .  A
C449        C450   1.397       .  A
C449       Br461   1.913       .  S
C450        H453   1.059       .  S
C452        C454   1.386       .  A
C452        C458   1.407       .  A
C454        H459   1.085       .  S
C454        C455   1.381       .  A
C455        C456   1.433       .  A
C455       Br463   1.904       .  S
C456        C457   1.417       .  A
C457        H460   1.068       .  S
C457        C458   1.406       .  A
C458       Br464   1.914       .  S
C465        C466   1.433       .  A
C465        C470   1.407       .  A
C466        C467   1.397       .  A
C466       Br482   1.916       .  S
C467        H471   1.084       .  S
C467        C468   1.395       .  A
C468        C472   1.493       .  S
C468        C469   1.415       .  A
C469        C470   1.410       .  A
C469       Br481   1.918       .  S
C470        H473   1.083       .  S
C472        C474   1.406       .  A
C472        C478   1.397       .  A
C474        H479   1.082       .  S
C474        C475   1.414       .  A
C475        C476   1.436       .  A
C475       Br483   1.927       .  S
C476        C477   1.427       .  A
C477        H480   1.069       .  S
C477        C478   1.391       .  A
C478       Br484   1.925       .  S
C485        C486   1.433       .  A
C485        C490   1.409       .  A
C486        C487   1.427       .  A
C486       Br502   1.913       .  S
C487        H491   1.081       .  S
C487        C488   1.413       .  A
C488        C492   1.500       .  S
C488        C489   1.392       .  A
C489        C490   1.380       .  A
C489       Br501   1.904       .  S
C490        H493   1.065       .  S
C492        C494   1.402       .  A
C492        C498   1.411       .  A
C494        H499   1.084       .  S
C494        C495   1.408       .  A
C495        C496   1.424       .  A
C495       Br503   1.918       .  S
C496        C497   1.422       .  A
C497        H500   1.082       .  S
C497        C498   1.409       .  A
C498       Br504   1.918       .  S
C505        C506   1.431       .  A
C505        C510   1.421       .  A
C506        C507   1.412       .  A
C506       Br522   1.919       .  S
C507        H511   1.083       .  S
C507        C508   1.406       .  A
C508        C512   1.500       .  S
C508        C509   1.406       .  A
C509        C510   1.394       .  A
C509       Br521   1.929       .  S
C510        H513   1.062       .  S
C512        C514   1.403       .  A
C512        C518   1.414       .  A
C514        H519   1.083       .  S
C514        C515   1.398       .  A
C515        C516   1.425       .  A
C515       Br523   1.920       .  S
C516        C517   1.404       .  A
C517        H520   1.075       .  S
C517        C518   1.412       .  A
C518       Br524   1.919       .  S
C525        C526   1.426       .  A
C525        C530   1.411       .  A
C526        C527   1.403       .  A
C526       Br542   1.920       .  S
C527        H531   1.081       .  S
C527        C528   1.402       .  A
C528        C532   1.523       .  S
C528        C529   1.421       .  A
C529        C530   1.415       .  A
C529       Br541   1.916       .  S
C530        H533   1.083       .  S
C532        C534   1.413       .  A
C532        C538   1.417       .  A
C534        H539   1.080       .  S
C534        C535   1.423       .  A
C535        C536   1.435       .  A
C535       Br543   1.914       .  S
C536        C537   1.403       .  A
C537        H540   1.056       .  S
C537        C538   1.386       .  A
C538       Br544   1.932       .  S
C545        C546   1.431       .  A
C545        C550   1.419       .  A
C546        C547   1.411       .  A
C546       Br562   1.911       .  S
C547        H551   1.082       .  S
C547        C548   1.402       .  A
C548        C552   1.472       .  S
C548        C549   1.396       .  A
C549        C550   1.369       .  A
C549       Br561   1.931       .  S
C550        H553   1.062       .  S
C552        C554   1.387       .  A
C552        C558   1.392       .  A
C554        H559   1.086       .  S
C554        C555   1.381       .  A
C555        C556   1.430       .  A
C555       Br563   1.918       .  S
C556        C557   1.418       .  A
C557        H560   1.069       .  S
C557        C558   1.397       .  A
C558       Br564   1.888       .  S
C565        C566   1.420       .  A
C565        C570   1.425       .  A
C566        C567   1.413       .  A
C566       Br582   1.920       .  S
C567        H571   1.083       .  S
C567        C568   1.410       .  A
C568        C572   1.508       .  S
C568        C569   1.408       .  A
C569        C570   1.413       .  A
C569       Br581   1.915       .  S
C570        H573   1.083       .  S
C572        C574   1.408       .  A
C572        C578   1.402       .  A
C574        H579   1.083       .  S
C574        C575   1.426       .  A
C575        C576   1.435       .  A
C575       Br583   1.914       .  S
C576        C577   1.405       .  A
C577        H580   1.080       .  S
C577        C578   1.378       .  A
C578       Br584   1.884       .  S
C585        C586   1.432       .  A
C585        C590   1.413       .  A
C586        C587   1.415       .  A
C586       Br602   1.928       .  S
C587        H591   1.082       .  S
C587        C588   1.406       .  A
C588        C592   1.509       .  S
C588        C589   1.410       .  A
C589        C590   1.405       .  A
C589       Br601   1.913       .  S
C590        H593   1.083       .  S
C592        C594   1.397       .  A
C592        C598   1.405       .  A
C594        H599   1.079       .  S
C594        C595   1.402       .  A
C595        C596   1.431       .  A
C595       Br603   1.915       .  S
C596        C597   1.418       .  A
C597        H600   1.077       .  S
C597        C598   1.411       .  A
C598       Br604   1.892       .  S
C605        C606   1.442       .  A
C605        C610   1.419       .  A
C606        C607   1.391       .  A
C606       Br622   1.924       .  S
C607        H611   1.084       .  S
C607        C608   1.392       .  A
C608        C612   1.503       .  S
C608        C609   1.416       .  A
C609        C610   1.409       .  A
C609       Br621   1.912   1_455  S
C610        H613   1.082       .  S
C612        C614   1.413   1_455  A
C612        C618   1.410       .  A
C614        H619   1.081       .  S
C614        C615   1.410   1_655  A
C615        C616   1.434       .  A
C615       Br623   1.939   1_455  S
C616        C617   1.415       .  A
C617        H620   1.083       .  S
C617        C618   1.397       .  A
C618       Br624   1.907       .  S
C625        C626   1.438       .  A
C625        C630   1.418       .  A
C626        C627   1.406       .  A
C626       Br642   1.923       .  S
C627        H631   1.082       .  S
C627        C628   1.402       .  A
C628        C632   1.505       .  S
C628        C629   1.401       .  A
C629        C630   1.403       .  A
C629       Br641   1.926       .  S
C630        H633   1.066       .  S
C632        C634   1.410       .  A
C632        C638   1.409       .  A
C634        H639   1.081       .  S
C634        C635   1.415       .  A
C635        C636   1.436       .  A
C635       Br643   1.923       .  S
C636        C637   1.420       .  A
C637        H640   1.066       .  S
C637        C638   1.385       .  A
C638       Br644   1.928       .  S
C645        C646   1.426       .  A
C645        C650   1.420       .  A
C646        C647   1.381       .  A
C646       Br662   1.917       .  S
C647        H651   1.077       .  S
C647        C648   1.393       .  A
C648        C652   1.489       .  S
C648        C649   1.407       .  A
C649        C650   1.407       .  A
C649       Br661   1.906       .  S
C650        H653   1.080       .  S
C652        C654   1.394       .  A
C652        C658   1.401       .  A
C654        H659   1.082       .  S
C654        C655   1.407       .  A
C655        C656   1.444       .  A
C655       Br663   1.918       .  S
C656        C657   1.417       .  A
C657        H660   1.062       .  S
C657        C658   1.394       .  A
C658       Br664   1.924       .  S
C665        C666   1.436       .  A
C665        C670   1.412       .  A
C666        C667   1.398       .  A
C666       Br682   1.919       .  S
C667        H671   1.085       .  S
C667        C668   1.398       .  A
C668        C672   1.480       .  S
C668        C669   1.390       .  A
C669        C670   1.394       .  A
C669       Br681   1.881       .  S
C670        H673   1.068       .  S
C672        C674   1.402       .  A
C672        C678   1.385       .  A
C674        H679   1.083       .  S
C674        C675   1.415       .  A
C675        C676   1.436       .  A
C675       Br683   1.922       .  S
C676        C677   1.425       .  A
C677        H680   1.067       .  S
C677        C678   1.384       .  A
C678       Br684   1.913       .  S
C685        C686   1.440       .  A
C685        C690   1.416       .  A
C686        C687   1.392       .  A
C686       Br702   1.910       .  S
C687        H691   1.084       .  S
C687        C688   1.386       .  A
C688        C692   1.496       .  S
C688        C689   1.409       .  A
C689        C690   1.412       .  A
C689       Br701   1.901       .  S
C690        H693   1.074       .  S
C692        C694   1.402       .  A
C692        C698   1.413       .  A
C694        H699   1.083       .  S
C694        C695   1.407       .  A
C695        C696   1.419       .  A
C695       Br703   1.918       .  S
C696        C697   1.418       .  A
C697        H700   1.083       .  S
C697        C698   1.407       .  A
C698       Br704   1.916       .  S
C705        C706   1.420       .  A
C705        C710   1.422       .  A
C706        C707   1.407       .  A
C706       Br722   1.904       .  S
C707        H711   1.083       .  S
C707        C708   1.405       .  A
C708        C712   1.503       .  S
C708        C709   1.412       .  A
C709        C710   1.399       .  A
C709       Br721   1.918       .  S
C710        H713   1.082       .  S
C712        C714   1.407       .  A
C712        C718   1.408       .  A
C714        H719   1.080       .  S
C714        C715   1.415       .  A
C715        C716   1.437       .  A
C715       Br723   1.931       .  S
C716        C717   1.425       .  A
C717        H720   1.076       .  S
C717        C718   1.389       .  A
C718       Br724   1.928       .  S
C725        C726   1.435       .  A
C725        C730   1.417       .  A
C726        C727   1.388       .  A
C726       Br742   1.919       .  S
C727        H731   1.086       .  S
C727        C728   1.386       .  A
C728        C732   1.474       .  S
C728        C729   1.410       .  A
C729        C730   1.404       .  A
C729       Br741   1.909       .  S
C730        H733   1.077       .  S
C732        C734   1.394       .  A
C732        C738   1.394       .  A
C734        H739   1.083       .  S
C734        C735   1.408       .  A
C735        C736   1.435       .  A
C735       Br743   1.914       .  S
C736        C737   1.424       .  A
C737        H740   1.084       .  S
C737        C738   1.383       .  A
C738       Br744   1.909       .  S
C745        C746   1.437       .  A
C745        C750   1.415       .  A
C746        C747   1.412       .  A
C746       Br762   1.916       .  S
C747        H751   1.083       .  S
C747        C748   1.405       .  A
C748        C752   1.497       .  S
C748        C749   1.401       .  A
C749        C750   1.387       .  A
C749       Br761   1.918       .  S
C750        H753   1.069       .  S
C752        C754   1.399       .  A
C752        C758   1.405       .  A
C754        H759   1.084       .  S
C754        C755   1.404       .  A
C755        C756   1.444       .  A
C755       Br763   1.928       .  S
C756        C757   1.411       .  A
C757        H760   1.072       .  S
C757        C758   1.397       .  A
C758       Br764   1.921       .  S
C765        C766   1.432       .  A
C765        C770   1.420       .  A
C766        C767   1.426       .  A
C766       Br782   1.922       .  S
C767        H771   1.081       .  S
C767        C768   1.414       .  A
C768        C772   1.535       .  S
C768        C769   1.415       .  A
C769        C770   1.403       .  A
C769       Br781   1.908       .  S
C770        H773   1.080       .  S
C772        C774   1.402       .  A
C772        C778   1.416       .  A
C774        H779   1.083       .  S
C774        C775   1.412       .  A
C775        C776   1.432       .  A
C775       Br783   1.903       .  S
C776        C777   1.431       .  A
C777        H780   1.083       .  S
C777        C778   1.420       .  A
C778       Br784   1.914       .  S
C785        C786   1.427       .  A
C785        C790   1.417       .  A
C786        C787   1.393       .  A
C786       Br802   1.899       .  S
C787        H791   1.083       .  S
C787        C788   1.397       .  A
C788        C792   1.519       .  S
C788        C789   1.414       .  A
C789        C790   1.414       .  A
C789       Br801   1.892       .  S
C790        H793   1.071       .  S
C792        C794   1.416       .  A
C792        C798   1.413       .  A
C794        H799   1.071       .  S
C794        C795   1.422       .  A
C795        C796   1.404       .  A
C795       Br803   1.920       .  S
C796        C797   1.413       .  A
C797        H800   1.074       .  S
C797        C798   1.390       .  A
C798       Br804   1.913       .  S
C805        C806   1.448       .  A
C805        C810   1.425       .  A
C806        C807   1.404       .  A
C806       Br822   1.915       .  S
C807        H811   1.085       .  S
C807        C808   1.389       .  A
C808        C812   1.487       .  S
C808        C809   1.404       .  A
C809        C810   1.396       .  A
C809       Br821   1.922   1_556  S
C810        H813   1.081       .  S
C812        C814   1.415       .  A
C812        C818   1.403       .  A
C814        H819   1.083   1_556  S
C814        C815   1.418       .  A
C815        C816   1.420       .  A
C815       Br823   1.927   1_556  S
C816        C817   1.424       .  A
C817        H820   1.076       .  S
C817        C818   1.381       .  A
C818       Br824   1.928       .  S
C825        C826   1.424       .  A
C825        C830   1.428       .  A
C826        C827   1.402       .  A
C826       Br842   1.927       .  S
C827        H831   1.069       .  S
C827        C828   1.397       .  A
C828        C832   1.495       .  S
C828        C829   1.401       .  A
C829        C830   1.409       .  A
C829       Br841   1.910       .  S
C830        H833   1.083       .  S
C832        C834   1.380       .  A
C832        C838   1.411       .  A
C834        H839   1.079       .  S
C834        C835   1.382       .  A
C835        C836   1.437       .  A
C835       Br843   1.916       .  S
C836        C837   1.423       .  A
C837        H840   1.081       .  S
C837        C838   1.427       .  A
C838       Br844   1.914       .  S
C845        C846   1.431       .  A
C845        C850   1.413       .  A
C846        C847   1.411       .  A
C846       Br862   1.926       .  S
C847        H851   1.081       .  S
C847        C848   1.411       .  A
C848        C852   1.503       .  S
C848        C849   1.408       .  A
C849        C850   1.383       .  A
C849       Br861   1.917       .  S
C850        H853   1.072       .  S
C852        C854   1.403       .  A
C852        C858   1.410       .  A
C854        H859   1.082       .  S
C854        C855   1.401       .  A
C855        C856   1.428       .  A
C855       Br863   1.920       .  S
C856        C857   1.416       .  A
C857        H860   1.070       .  S
C857        C858   1.410       .  A
C858       Br864   1.922       .  S
C865        C866   1.431       .  A
C865        C870   1.419       .  A
C866        C867   1.415       .  A
C866       Br882   1.920       .  S
C867        H871   1.071       .  S
C867        C868   1.413       .  A
C868        C872   1.530       .  S
C868        C869   1.411       .  A
C869        C870   1.398       .  A
C869       Br881   1.928       .  S
C870        H873   1.068       .  S
C872        C874   1.423       .  A
C872        C878   1.424       .  A
C874        H879   1.062       .  S
C874        C875   1.429       .  A
C875        C876   1.456       .  A
C875       Br883   3.669       .  S
C876        C877   1.397       .  A
C877        H880   1.081       .  S
C877        C878   1.397       .  A
C878       Br884   1.917   1_455  S
C885        C886   1.423       .  A
C885        C890   1.407       .  A
C886        C887   1.409       .  A
C886       Br902   1.930       .  S
C887        H891   1.079       .  S
C887        C888   1.415       .  A
C888        C892   1.511       .  S
C888        C889   1.413       .  A
C889        C890   1.395       .  A
C889       Br901   1.914       .  S
C890        H893   1.072       .  S
C892        C894   1.405       .  A
C892        C898   1.411       .  A
C894        H899   1.082       .  S
C894        C895   1.400       .  A
C895        C896   1.433       .  A
C895       Br903   1.925       .  S
C896        C897   1.415       .  A
C897        H900   1.065       .  S
C897        C898   1.404       .  A
C898       Br904   1.908       .  S
C905        C906   1.435       .  A
C905        C910   1.418       .  A
C906        C907   1.387       .  A
C906       Br922   1.910       .  S
C907        H911   1.083       .  S
C907        C908   1.385       .  A
C908        C912   1.496       .  S
C908        C909   1.412       .  A
C909        C910   1.417       .  A
C909       Br921   1.900       .  S
C910        H913   1.078       .  S
C912        C914   1.403       .  A
C912        C918   1.405       .  A
C914        H919   1.084       .  S
C914        C915   1.403       .  A
C915        C916   1.428       .  A
C915       Br923   1.919       .  S
C916        C917   1.421       .  A
C917        H920   1.066       .  S
C917        C918   1.410       .  A
C918       Br924   1.918       .  S
C925        C926   1.434       .  A
C925        C930   1.397       .  A
C926        C927   1.388       .  A
C926       Br942   1.926       .  S
C927        H931   1.083       .  S
C927        C928   1.400       .  A
C928        C932   1.487       .  S
C928        C929   1.420       .  A
C929        C930   1.400       .  A
C929       Br941   1.915       .  S
C930        H933   1.077       .  S
C932        C934   1.403       .  A
C932        C938   1.398       .  A
C934        H939   1.084       .  S
C934        C935   1.402       .  A
C935        C936   1.440       .  A
C935       Br943   1.932       .  S
C936        C937   1.427       .  A
C937        H940   1.074       .  S
C937        C938   1.387       .  A
C938       Br944   1.916       .  S
C945        C946   1.670       .  A
C945        C950   1.659       .  A
C946        C947   1.635       .  A
C946       Br962   1.914       .  S
C947        H951   1.082       .  S
C947        C948   1.630       .  A
C948        C952   1.490       .  S
C948        C949   1.617       .  A
C949        C950   1.585       .  A
C949       Br961   1.915       .  S
C950        H953   1.066       .  S
C952        C954   1.411       .  A
C952        C958   1.403       .  A
C954        H959   1.083       .  S
C954        C955   1.411       .  A
C955        C956   1.426       .  A
C955       Br963   1.919       .  S
C956        C957   1.418       .  A
C957        H960   1.081       .  S
C957        C958   1.385       .  A
C958       Br964   1.922       .  S
C965        C966   1.434       .  A
C965        C970   1.424       .  A
C966        C967   1.409       .  A
C966       Br982   1.912       .  S
C967        H971   1.083       .  S
C967        C968   1.403       .  A
C968        C972   1.484       .  S
C968        C969   1.391       .  A
C969        C970   1.390       .  A
C969       Br981   1.928       .  S
C970        H973   1.057       .  S
C972        C974   1.395       .  A
C972        C978   1.413       .  A
C974        H979   1.084       .  S
C974        C975   1.384       .  A
C975        C976   1.424       .  A
C975       Br983   1.923       .  S
C976        C977   1.414       .  A
C977        H980   1.074       .  S
C977        C978   1.413       .  A
C978       Br984   1.917       .  S
C985        C986   1.423       .  A
C985        C990   1.408       .  A
C986        C987   1.424       .  A
C986      Br1002   1.900       .  S
C987        H991   1.081       .  S
C987        C988   1.410       .  A
C988        C992   1.500       .  S
C988        C989   1.400       .  A
C989        C990   1.382       .  A
C989      Br1001   1.927       .  S
C990        H993   1.065       .  S
C992        C994   1.396       .  A
C992        C998   1.413       .  A
C994        H999   1.083       .  S
C994        C995   1.380       .  A
C995        C996   1.429       .  A
C995      Br1003   1.929       .  S
C996        C997   1.418       .  A
C997       H1000   1.082       .  S
C997        C998   1.420       .  A
C998      Br1004   1.905       .  S
C1005      C1006   1.441       .  A
C1005      C1010   1.398       .  A
C1006      C1007   1.418       .  A
C1006     Br1022   1.918   1_455  S
C1007      H1011   1.081   1_455  S
C1007      C1008   1.403       .  A
C1008      C1012   1.493       .  S
C1008      C1009   1.400       .  A
C1009      C1010   1.381       .  A
C1009     Br1021   1.900       .  S
C1010      H1013   1.068       .  S
C1012      C1014   1.405   1_455  A
C1012      C1018   1.405       .  A
C1014      H1019   1.083       .  S
C1014      C1015   1.411   1_655  A
C1015      C1016   1.426       .  A
C1015     Br1023   1.930   1_455  S
C1016      C1017   1.422       .  A
C1017      H1020   1.082       .  S
C1017      C1018   1.405       .  A
C1018     Br1024   1.917       .  S
C1025      C1026   1.422       .  A
C1025      C1030   1.402       .  A
C1026      C1027   1.397       .  A
C1026     Br1042   1.924       .  S
C1027      H1031   1.079       .  S
C1027      C1028   1.408       .  A
C1028      C1032   1.513       .  S
C1028      C1029   1.429       .  A
C1029      C1030   1.406       .  A
C1029     Br1041   1.925       .  S
C1030      H1033   1.084       .  S
C1032      C1034   1.404       .  A
C1032      C1038   1.424       .  A
C1034      H1039   1.075       .  S
C1034      C1035   1.395       .  A
C1035      C1036   1.428       .  A
C1035     Br1043   1.926       .  S
C1036      C1037   1.411       .  A
C1037      H1040   1.071       .  S
C1037      C1038   1.412       .  A
C1038     Br1044   1.920       .  S
C1045      C1046   1.425       .  A
C1045      C1050   1.410       .  A
C1046      C1047   1.402       .  A
C1046     Br1062   1.912       .  S
C1047      H1051   1.083       .  S
C1047      C1048   1.399       .  A
C1048      C1052   1.496       .  S
C1048      C1049   1.416       .  A
C1049      C1050   1.409       .  A
C1049     Br1061   1.898       .  S
C1050      H1053   1.084       .  S
C1052      C1054   1.407       .  A
C1052      C1058   1.400       .  A
C1054      H1059   1.075       .  S
C1054      C1055   1.421       .  A
C1055      C1056   1.424       .  A
C1055     Br1063   1.905       .  S
C1056      C1057   1.411       .  A
C1057      H1060   1.079       .  S
C1057      C1058   1.375       .  A
C1058     Br1064   1.894       .  S
C1065      C1066   1.441       .  A
C1065      C1070   1.420       .  A
C1066      C1067   1.408       .  A
C1066     Br1082   1.923       .  S
C1067      H1071   1.084       .  S
C1067      C1068   1.398       .  A
C1068      C1072   1.495       .  S
C1068      C1069   1.397       .  A
C1069      C1070   1.396       .  A
C1069     Br1081   1.929       .  S
C1070      H1073   1.054       .  S
C1072      C1074   1.401       .  A
C1072      C1078   1.402       .  A
C1074      H1079   1.083       .  S
C1074      C1075   1.411       .  A
C1075      C1076   1.440       .  A
C1075     Br1083   1.915       .  S
C1076      C1077   1.427       .  A
C1077      H1080   1.067       .  S
C1077      C1078   1.387       .  A
C1078     Br1084   1.930       .  S
C1085      C1086   1.420       .  A
C1085      C1090   1.417       .  A
C1086      C1087   1.380       .  A
C1086     Br1102   1.905       .  S
C1087      H1091   1.078       .  S
C1087      C1088   1.396       .  A
C1088      C1092   1.512       .  S
C1088      C1089   1.420       .  A
C1089      C1090   1.418       .  A
C1089     Br1101   1.916       .  S
C1090      H1093   1.081       .  S
C1092      C1094   1.402       .  A
C1092      C1098   1.410       .  A
C1094      H1099   1.079       .  S
C1094      C1095   1.415       .  A
C1095      C1096   1.443       .  A
C1095     Br1103   1.918       .  S
C1096      C1097   1.415       .  A
C1097      H1100   1.062       .  S
C1097      C1098   1.403       .  A
C1098     Br1104   1.922       .  S
C1105      C1106   1.426       .  A
C1105      C1110   1.399       .  A
C1106      C1107   1.405       .  A
C1106     Br1122   1.919       .  S
C1107      H1111   1.083       .  S
C1107      C1108   1.405       .  A
C1108      C1112   1.514       .  S
C1108      C1109   1.429       .  A
C1109      C1110   1.406       .  A
C1109     Br1121   1.911       .  S
C1110      H1113   1.084       .  S
C1112      C1114   1.413       .  A
C1112      C1118   1.397       .  A
C1114      H1119   1.083       .  S
C1114      C1115   1.427       .  A
C1115      C1116   1.442       .  A
C1115     Br1123   1.924       .  S
C1116      C1117   1.430       .  A
C1117      H1120   1.069       .  S
C1117      C1118   1.390       .  A
C1118     Br1124   1.906       .  S
C1125      C1126   1.422       .  A
C1125      C1130   1.413       .  A
C1126      C1127   1.383       .  A
C1126     Br1142   1.917       .  S
C1127      H1131   1.074       .  S
C1127      C1128   1.396       .  A
C1128      C1132   1.517       .  S
C1128      C1129   1.423       .  A
C1129      C1130   1.416       .  A
C1129     Br1141   1.900   1_545  S
C1130      H1133   1.080       .  S
C1132      C1134   1.415       .  A
C1132      C1138   1.421       .  A
C1134      H1139   1.078       .  S
C1134      C1135   1.420       .  A
C1135      C1136   1.401       .  A
C1135     Br1143   1.921       .  S
C1136      C1137   1.412       .  A
C1137      H1140   1.083       .  S
C1137      C1138   1.397       .  A
C1138     Br1144   1.923       .  S
C1145      C1146   1.433       .  A
C1145      C1150   1.424       .  A
C1146      C1147   1.412       .  A
C1146     Br1162   1.918       .  S
C1147      H1151   1.083       .  S
C1147      C1148   1.404       .  A
C1148      C1152   1.501       .  S
C1148      C1149   1.398       .  A
C1149      C1150   1.396       .  A
C1149     Br1161   1.918       .  S
C1150      H1153   1.060       .  S
C1152      C1154   1.407       .  A
C1152      C1158   1.401       .  A
C1154      H1159   1.079       .  S
C1154      C1155   1.411       .  A
C1155      C1156   1.430       .  A
C1155     Br1163   1.928       .  S
C1156      C1157   1.427       .  A
C1157      H1160   1.074       .  S
C1157      C1158   1.393       .  A
C1158     Br1164   1.922       .  S
C1165      C1166   1.438       .  A
C1165      C1170   1.422       .  A
C1166      C1167   1.412       .  A
C1166     Br1182   1.928       .  S
C1167      H1171   1.083       .  S
C1167      C1168   1.407       .  A
C1168      C1172   1.505       .  S
C1168      C1169   1.402       .  A
C1169      C1170   1.403       .  A
C1169     Br1181   1.908       .  S
C1170      H1173   1.067       .  S
C1172      C1174   1.392       .  A
C1172      C1178   1.425       .  A
C1174      H1179   1.083       .  S
C1174      C1175   1.385       .  A
C1175      C1176   1.431       .  A
C1175     Br1183   1.910       .  S
C1176      C1177   1.417       .  A
C1177      H1180   1.081       .  S
C1177      C1178   1.412       .  A
C1178     Br1184   1.908       .  S
C1185      C1186   1.438       .  A
C1185      C1190   1.424       .  A
C1186      C1187   1.400       .  A
C1186     Br1202   1.914       .  S
C1187      H1191   1.085       .  S
C1187      C1188   1.396       .  A
C1188      C1192   1.478       .  S
C1188      C1189   1.400       .  A
C1189      C1190   1.391       .  A
C1189     Br1201   1.919       .  S
C1190      H1193   1.076       .  S
C1192      C1194   1.388       .  A
C1192      C1198   1.396       .  A
C1194      H1199   1.086       .  S
C1194      C1195   1.398       .  A
C1195      C1196   1.452       .  A
C1195     Br1203   1.926       .  S
C1196      C1197   1.420       .  A
C1197      H1200   1.077       .  S
C1197      C1198   1.394       .  A
C1198     Br1204   1.917       .  S
