geometry optimzed in LAMMPS
_audit_creation_date              2020-11-30 
_audit_creation_method            'lammps2cif' 
_symmetry_space_group_name_H-M    'P1' 
_symmetry_Int_Tables_number       1 
_symmetry_cell_setting            triclinic 
loop_ 
_symmetry_equiv_pos_as_xyz 
  x,y,z 
_cell_length_a                    39.09561991 
_cell_length_b                    39.05887959775809 
_cell_length_c                    30.105274524696913 
_cell_angle_alpha                 90.04173336155195 
_cell_angle_beta                  90.079026275912 
_cell_angle_gamma                 90.04303525355286 
loop_ 
_atom_site_label 
_atom_site_type_symbol 
_atom_site_fract_x 
_atom_site_fract_y 
_atom_site_fract_z 
_atom_site_charge 
C1          C  0.50936974  0.29265652  0.11470393     0.03200
C2          C  0.52933668  0.27400093  0.08434059    -0.13000
C3          C  0.52833551  0.23802308  0.08409602     0.00700
C4          C  0.50810245  0.22080160  0.11552105    -0.11500
C5          C  0.48869128  0.23915077  0.14667063     0.03200
C6          C  0.48909846  0.27504627  0.14564338    -0.10900
H7          H  0.54512326  0.28750278  0.06051985     0.08800
H8          H  0.50756412  0.19305165  0.11583419     0.06300
H9          H  0.47409986  0.28941290  0.16949684     0.06100
O10         O  0.50190471  0.56747105  0.09114315    -0.71700
O11         O  0.49619946  0.66444025  0.09171330    -0.72000
O12         O  0.54756459  0.61866311  0.09049570    -0.71800
O13         O  0.45066564  0.61343763  0.09247255    -0.71800
O14         O  0.45135630  0.61612798  0.16428310    -0.71800
O15         O  0.54857171  0.61490618  0.16252139    -0.71800
O16         O  0.50039375  0.66448411  0.16366876    -0.71700
O17         O  0.49947594  0.56703133  0.16320861    -0.71900
V18         V  0.49911881  0.61598816  0.09284789     1.35200
V19         V  0.49995513  0.61571289  0.16209055     1.35200
C20         C  0.50110641  0.55066450  0.12701422     0.77500
C21         C  0.49725696  0.68101035  0.12774559     0.77600
C22         C  0.56457685  0.61673684  0.12613055     0.77400
C23         C  0.43426803  0.61465471  0.12865896     0.77400
C24         C  0.82193163  0.60294676  0.11801021     0.03200
C25         C  0.84004634  0.62309021  0.08726808    -0.13000
C26         C  0.87594956  0.62252227  0.08633676     0.00700
C27         C  0.89373567  0.60243986  0.11726785    -0.11500
C28         C  0.87607917  0.58246571  0.14840299     0.03200
C29         C  0.84017569  0.58197155  0.14771802    -0.10900
H30         H  0.82616668  0.63902114  0.06393994     0.08800
H31         H  0.92146665  0.60255538  0.11731966     0.06300
H32         H  0.82639115  0.56623202  0.17131510     0.06100
C33         C  0.49016674  0.93907522  0.12114163     0.03200
C34         C  0.51126545  0.95653201  0.15137621    -0.13000
C35         C  0.51246559  0.99239132  0.15172748     0.00700
C36         C  0.49337666  0.01084494  0.12041102    -0.11500
C37         C  0.47298509  0.99375460  0.08902544     0.03200
C38         C  0.47113166  0.95781012  0.08985390    -0.10900
H39         H  0.52625742  0.94211965  0.17521153     0.08800
H40         H  0.49460839  0.03857638  0.12024640     0.06300
H41         H  0.45538002  0.94438543  0.06584281     0.06100
C42         C  0.17665523  0.60050451  0.12127608     0.03200
C43         C  0.15855567  0.61947065  0.15305600    -0.13000
C44         C  0.12276629  0.61780552  0.15501325     0.00700
C45         C  0.10500170  0.59737041  0.12427606    -0.11500
C46         C  0.12282779  0.57835078  0.09215454     0.03200
C47         C  0.15873140  0.57945070  0.09143824    -0.10900
H48         H  0.17247588  0.63521588  0.17661773     0.08800
H49         H  0.07729333  0.59654845  0.12503069     0.06300
H50         H  0.17269301  0.56514293  0.06648983     0.06100
C51         C  0.49511349  0.93954427  0.37220774     0.03200
C52         C  0.47521561  0.95840636  0.40230893    -0.13000
C53         C  0.47591095  0.99432026  0.40183300     0.00700
C54         C  0.49572397  0.01137825  0.36989126    -0.11500
C55         C  0.51502293  0.99281527  0.33883132     0.03200
C56         C  0.51485331  0.95689519  0.34043664    -0.10900
H57         H  0.46013490  0.94508182  0.42706991     0.08800
H58         H  0.49609911  0.03912556  0.36920979     0.06300
H59         H  0.52955342  0.94234669  0.31646424     0.06100
O60         O  0.45187362  0.61488631  0.33904667    -0.71700
O61         O  0.54897354  0.61814089  0.33389381    -0.72000
O62         O  0.50191618  0.56786653  0.33465130    -0.71800
O63         O  0.49862301  0.66511518  0.33848862    -0.71800
O64         O  0.49963298  0.66339262  0.41031505    -0.71800
O65         O  0.50596220  0.56650626  0.40644341    -0.71800
O66         O  0.55123119  0.61811909  0.40589682    -0.71700
O67         O  0.45433383  0.61154658  0.41099653    -0.71900
V68         V  0.50042381  0.61647328  0.33788181     1.35200
V69         V  0.50274415  0.61495347  0.40701388     1.35200
C70         C  0.43659230  0.61218018  0.37586412     0.77500
C71         C  0.56671396  0.61901420  0.36907132     0.77600
C72         C  0.50493121  0.55053264  0.36990378     0.77400
C73         C  0.49805197  0.68098283  0.37517412     0.77400
C74         C  0.17875392  0.60507796  0.37822837     0.03200
C75         C  0.16057415  0.62370207  0.34599631    -0.13000
C76         C  0.12479637  0.62124672  0.34325095     0.00700
C77         C  0.10723879  0.60054007  0.37367509    -0.11500
C78         C  0.12505098  0.58191912  0.40611215     0.03200
C79         C  0.16087756  0.58383046  0.40785161    -0.10900
H80         H  0.17439857  0.63967685  0.32268095     0.08800
H81         H  0.07957705  0.59889194  0.37214232     0.06300
H82         H  0.17481114  0.56932730  0.43263933     0.06100
C83         C  0.51258937  0.29218434  0.36686791     0.03200
C84         C  0.53177244  0.27324127  0.39777913    -0.13000
C85         C  0.53095222  0.23729291  0.39726162     0.00700
C86         C  0.51109296  0.22031510  0.36516475    -0.11500
C87         C  0.49177853  0.23895633  0.33417361     0.03200
C88         C  0.49241951  0.27482036  0.33547398    -0.10900
H89         H  0.54643433  0.28650197  0.42307486     0.08800
H90         H  0.51037176  0.19257488  0.36463267     0.06300
H91         H  0.47764742  0.28932935  0.31150331     0.06100
C92         C  0.82446229  0.60854702  0.36467836     0.03200
C93         C  0.84240610  0.58843373  0.33397146    -0.13000
C94         C  0.87828254  0.58715620  0.33506570     0.00700
C95         C  0.89610034  0.60596079  0.36752315    -0.11500
C96         C  0.87831309  0.62604774  0.39863282     0.03200
C97         C  0.84245543  0.62747441  0.39668520    -0.10900
H98         H  0.82840132  0.57399275  0.30912492     0.08800
H99         H  0.92378922  0.60484656  0.36865901     0.06300
H100        H  0.82841333  0.64266622  0.42066496     0.06100
C101        C  0.99742573  0.78061113  0.36366388     0.03200
C102        C  0.01917882  0.76151788  0.33596021    -0.13000
C103        C  0.02079621  0.72576509  0.33960176     0.00700
C104        C  0.00199674  0.70922588  0.37283688    -0.11500
C105        C  0.98124129  0.72796063  0.40206944     0.03200
C106        C  0.97865212  0.76365420  0.39694145    -0.10900
H107        H  0.03395400  0.77442521  0.31053936     0.08800
H108        H  0.00335189  0.68158830  0.37569995     0.06300
H109        H  0.96217932  0.77824616  0.41881383     0.06100
O110        O  0.95556031  0.10316221  0.37424424    -0.71700
O111        O  0.05235927  0.09976675  0.37594310    -0.72000
O112        O  0.00558127  0.14996306  0.37732738    -0.71800
O113        O  0.00219313  0.05286846  0.37263870    -0.71800
O114        O  0.00394785  0.05480028  0.30048511    -0.71800
O115        O  0.00516387  0.15211857  0.30531532    -0.71800
O116        O  0.05322697  0.10305205  0.30393748    -0.71700
O117        O  0.95588890  0.10423857  0.30217171    -0.71900
V118        V  0.00395839  0.10146026  0.37359937     1.35200
V119        V  0.00458057  0.10346004  0.30433153     1.35200
C120        C  0.93912856  0.10451863  0.33810083     0.77500
C121        C  0.06933693  0.10102670  0.34032641     0.77600
C122        C  0.00529044  0.16767050  0.34218933     0.77400
C123        C  0.00240832  0.03736942  0.33579380     0.77400
C124        C  0.32603336  0.11811337  0.35867974     0.03200
C125        C  0.34548690  0.13902421  0.33043040    -0.13000
C126        C  0.38124479  0.14016780  0.33451589     0.00700
C127        C  0.39735154  0.12132960  0.36824082    -0.11500
C128        C  0.37799485  0.10116298  0.39754067     0.03200
C129        C  0.34241852  0.09938460  0.39222866    -0.10900
H130        H  0.33286674  0.15357710  0.30451791     0.08800
H131        H  0.42496028  0.12219079  0.37143070     0.06300
H132        H  0.32732931  0.08356382  0.41437797     0.06100
C133        C  0.00604885  0.42609018  0.35907858     0.03200
C134        C  0.02439014  0.44302557  0.39280378    -0.13000
C135        C  0.02209686  0.47876500  0.39765888     0.00700
C136        C  0.00159125  0.49756889  0.36802145    -0.11500
C137        C  0.98295881  0.48087825  0.33454742     0.03200
C138        C  0.98502265  0.44520862  0.33057696    -0.10900
H139        H  0.03979705  0.42828536  0.41581539     0.08800
H140        H  0.00000992  0.52517880  0.37106281     0.06300
H141        H  0.97099094  0.43233665  0.30434042     0.06100
C142        C  0.68118593  0.10939426  0.36125194     0.03200
C143        C  0.66075183  0.09133525  0.33073898    -0.13000
C144        C  0.62501777  0.09186911  0.33406311     0.00700
C145        C  0.60948645  0.11116390  0.36759795    -0.11500
C146        C  0.62929313  0.12991166  0.39797368     0.03200
C147        C  0.66517264  0.12917980  0.39447560    -0.10900
H148        H  0.67266962  0.07728628  0.30385245     0.08800
H149        H  0.58181708  0.11164425  0.36994911     0.06300
H150        H  0.68060125  0.14325353  0.41820501     0.06100
C151        C  0.99917264  0.42271071  0.12271873     0.03200
C152        C  0.97905792  0.44182082  0.15233801    -0.13000
C153        C  0.97926585  0.47770166  0.15084360     0.00700
C154        C  0.99893897  0.49440543  0.11857186    -0.11500
C155        C  0.01888325  0.47568565  0.08838409     0.03200
C156        C  0.01948525  0.43978832  0.09118535    -0.10900
H157        H  0.96417243  0.42871527  0.17749074     0.08800
H158        H  0.99888483  0.52214199  0.11714563     0.06300
H159        H  0.03500089  0.42510170  0.06826077     0.06100
O160        O  0.04944210  0.09763332  0.11748669    -0.71700
O161        O  0.95265082  0.10221926  0.11675212    -0.72000
O162        O  0.00348687  0.14820306  0.11608842    -0.71800
O163        O  0.99852758  0.05131988  0.11828472    -0.71800
O164        O  0.00045765  0.05200034  0.19034859    -0.71800
O165        O  0.00108430  0.14953561  0.18812682    -0.71800
O166        O  0.95211714  0.10085999  0.18888436    -0.71700
O167        O  0.04957470  0.10064492  0.18947948    -0.71900
V168        V  0.00103158  0.09980558  0.11860721     1.35200
V169        V  0.00083322  0.10072852  0.18789083     1.35200
C170        C  0.06613470  0.09901689  0.15343195     0.77500
C171        C  0.93583666  0.10188160  0.15255480     0.77600
C172        C  0.00318120  0.16544230  0.15160807     0.77400
C173        C  0.99835820  0.03508088  0.15458155     0.77400
C174        C  0.67877462  0.11267131  0.12822687     0.03200
C175        C  0.66285046  0.13207352  0.09472798    -0.13000
C176        C  0.62712557  0.13109915  0.08934097     0.00700
C177        C  0.60737881  0.11118055  0.11848885    -0.11500
C178        C  0.62304807  0.09172349  0.15188734     0.03200
C179        C  0.65875159  0.09201661  0.15603441    -0.10900
H180        H  0.67832373  0.14756453  0.07265694     0.08800
H181        H  0.57975884  0.11083697  0.11527872     0.06300
H182        H  0.67096924  0.07686195  0.18169279     0.06100
C183        C  0.99749392  0.77802344  0.13059547     0.03200
C184        C  0.97768653  0.76128036  0.09813727    -0.13000
C185        C  0.97916371  0.72541257  0.09370218     0.00700
C186        C  0.99942575  0.70641346  0.12345432    -0.11500
C187        C  0.01867852  0.72296415  0.15646630     0.03200
C188        C  0.01789039  0.75871823  0.15948382    -0.10900
H189        H  0.96215682  0.77624952  0.07551751     0.08800
H190        H  0.00033491  0.67874412  0.12085194     0.06300
H191        H  0.03259805  0.77163425  0.18507764     0.06100
C192        C  0.32325767  0.11634707  0.13037597     0.03200
C193        C  0.33933172  0.09837479  0.09552793    -0.13000
C194        C  0.37489378  0.10085408  0.08915439     0.00700
C195        C  0.39425626  0.12147848  0.11788458    -0.11500
C196        C  0.37857890  0.13977328  0.15224020     0.03200
C197        C  0.34309206  0.13751065  0.15805982    -0.10900
H198        H  0.32414434  0.08266065  0.07332549     0.08800
H199        H  0.42177958  0.12302785  0.11390767     0.06300
H200        H  0.33111056  0.15103046  0.18537707     0.06100
O201        O  0.11555576  0.53144897  0.04204281    -0.71700
O202        O  0.06800025  0.48447214  0.44982205    -0.72000
O203        O  0.11706801  0.53335142  0.45327264    -0.71800
O204        O  0.06643656  0.48258830  0.03904253    -0.71800
O205        O  0.02761319  0.52235933  0.03923533    -0.71800
O206        O  0.07750319  0.57240983  0.45333069    -0.71800
O207        O  0.02913168  0.52418759  0.44978742    -0.71700
O208        O  0.07602724  0.57053105  0.04258511    -0.71900
V209        V  0.09098920  0.50866391  0.49604053     1.35200
V210        V  0.05333412  0.54654009  0.49623285     1.35200
C211        C  0.10394712  0.55914060  0.05776891     0.77500
C212        C  0.04054450  0.49649061  0.43389755     0.77600
C213        C  0.10583434  0.56162320  0.43887730     0.77400
C214        C  0.03848590  0.49411904  0.05402298     0.77400
O215        O  0.57756132  0.22794584  0.44720665    -0.71700
O216        O  0.62317576  0.17769194  0.03798697    -0.72000
O217        O  0.62454848  0.17702135  0.44873300    -0.71800
O218        O  0.57618599  0.22856754  0.03608998    -0.71800
O219        O  0.53565238  0.19048227  0.03560067    -0.71800
O220        O  0.58335999  0.13966174  0.44803927    -0.71800
O221        O  0.58202747  0.14028862  0.03748974    -0.71700
O222        O  0.53701912  0.18986614  0.44620725    -0.71900
V223        V  0.59963241  0.20206278  0.49249418     1.35200
V224        V  0.56037519  0.16580811  0.49184576     1.35200
C225        C  0.54939977  0.21750922  0.43145266     0.77500
C226        C  0.61018089  0.15051604  0.05342064     0.77600
C227        C  0.61191185  0.14965585  0.43322784     0.77400
C228        C  0.54760653  0.21825888  0.05060853     0.77400
O229        O  0.92489223  0.63332763  0.44901600    -0.71700
O230        O  0.97179436  0.67985848  0.04179981    -0.72000
O231        O  0.92338476  0.63157014  0.03842673    -0.71800
O232        O  0.97324387  0.68161246  0.45222327    -0.71800
O233        O  0.93424953  0.72120041  0.45227520    -0.71800
O234        O  0.88401380  0.67080272  0.03867391    -0.71800
O235        O  0.93308206  0.71971577  0.04159066    -0.71700
O236        O  0.88532217  0.67234252  0.44978244    -0.71900
V237        V  0.94756899  0.65740839  0.49538889     1.35200
V238        V  0.90993506  0.69528695  0.49559810     1.35200
C239        C  0.89699700  0.64475689  0.43378327     0.77500
C240        C  0.96050594  0.70766195  0.05757371     0.77600
C241        C  0.89516061  0.64251385  0.05311549     0.77400
C242        C  0.96215251  0.70970214  0.43714672     0.77400
O243        O  0.38171726  0.05453815  0.44842916    -0.71700
O244        O  0.42668187  0.00332443  0.03861765    -0.72000
O245        O  0.37990585  0.05433988  0.03761480    -0.71800
O246        O  0.42826850  0.00362589  0.44978144    -0.71800
O247        O  0.46897271  0.04154286  0.45091567    -0.71800
O248        O  0.42106129  0.09171070  0.03901185    -0.71800
O249        O  0.46728969  0.04131731  0.04032637    -0.71700
O250        O  0.42292941  0.09188204  0.44953625    -0.71900
V251        V  0.40488623  0.02971084  0.49362822     1.35200
V252        V  0.44422402  0.06587773  0.49496354     1.35200
C253        C  0.39488351  0.08173294  0.43330962     0.77500
C254        C  0.45478937  0.01359232  0.05467388     0.77600
C255        C  0.39245841  0.08157508  0.05356730     0.77400
C256        C  0.45685064  0.01399522  0.43543972     0.77400
O257        O  0.07615147  0.62670916  0.20463080    -0.71700
O258        O  0.02919010  0.67691476  0.29371282    -0.72000
O259        O  0.02788666  0.67533135  0.20436708    -0.71800
O260        O  0.07745842  0.62830921  0.29415171    -0.71800
O261        O  0.11697728  0.66741453  0.29225876    -0.71800
O262        O  0.06725951  0.71463146  0.20280593    -0.71800
O263        O  0.06821169  0.71652532  0.29126097    -0.71700
O264        O  0.11592068  0.66559199  0.20342556    -0.71900
V265        V  0.05347066  0.65255586  0.24920053     1.35200
V266        V  0.09136039  0.69023860  0.24745180     1.35200
C267        C  0.10412669  0.63754115  0.18899390     0.77500
C268        C  0.04038502  0.70549869  0.30712372     0.77600
C269        C  0.03892233  0.70328280  0.18882696     0.77400
C270        C  0.10565734  0.63979308  0.30847901     0.77400
O271        O  0.44182959  0.23390618  0.19699601    -0.71700
O272        O  0.39186726  0.18797194  0.28737047    -0.72000
O273        O  0.44358083  0.23409258  0.28586962    -0.71800
O274        O  0.39016855  0.18768989  0.19900110    -0.71800
O275        O  0.42768740  0.14664912  0.19760084    -0.71800
O276        O  0.48031077  0.19236591  0.28534063    -0.71800
O277        O  0.42918000  0.14674276  0.28675106    -0.71700
O278        O  0.47871844  0.19233925  0.19581013    -0.71900
V279        V  0.41762950  0.21017187  0.24229152     1.35200
V280        V  0.45326308  0.17037128  0.24138442     1.35200
C281        C  0.46881711  0.22097583  0.18104973     0.77500
C282        C  0.40176040  0.15927511  0.30189694     0.77600
C283        C  0.47099971  0.22105981  0.30046991     0.77400
C284        C  0.39972045  0.15901479  0.18400937     0.77400
O285        O  0.97169520  0.52632222  0.19741573    -0.71700
O286        O  0.92511275  0.57717742  0.28620980    -0.72000
O287        O  0.97330789  0.52839329  0.28670005    -0.71800
O288        O  0.92363453  0.57499202  0.19677844    -0.71800
O289        O  0.88385333  0.53616857  0.19930933    -0.71800
O290        O  0.93394240  0.48909914  0.28874124    -0.71800
O291        O  0.88521592  0.53843544  0.28809028    -0.71700
O292        O  0.93246688  0.48693902  0.20023085    -0.71900
V293        V  0.94763149  0.55096874  0.24183204     1.35200
V294        V  0.90961438  0.51343184  0.24411460     1.35200
C295        C  0.96023516  0.49784022  0.18403154     0.77500
C296        C  0.89704029  0.56666215  0.30192262     0.77600
C297        C  0.96238507  0.50046073  0.30239813     0.77400
C298        C  0.89530347  0.56362794  0.18277504     0.77400
O299        O  0.56059898  0.99762963  0.19990781    -0.71700
O300        O  0.61342839  0.04427565  0.28694173    -0.72000
O301        O  0.56192327  0.99796223  0.28866607    -0.71800
O302        O  0.61208929  0.04389538  0.19865078    -0.71800
O303        O  0.57473965  0.08510023  0.19892972    -0.71800
O304        O  0.52497036  0.03948382  0.28953699    -0.71800
O305        O  0.57595883  0.08535686  0.28808404    -0.71700
O306        O  0.52377679  0.03928569  0.20005770    -0.71900
V307        V  0.58624508  0.02170459  0.24354906     1.35200
V308        V  0.55055647  0.06146462  0.24414227     1.35200
C309        C  0.53320262  0.01054500  0.18515584     0.77500
C310        C  0.60388334  0.07297688  0.30185304     0.77600
C311        C  0.53485670  0.01086778  0.30437811     0.77400
C312        C  0.60224523  0.07258541  0.18406805     0.77400
C313        C  0.16041097  0.09128563  0.18508082    -0.11300
C314        C  0.17604932  0.10713975  0.14849552     0.15200
C315        C  0.15544466  0.11854707  0.11286524     0.02100
C316        C  0.11988617  0.11559146  0.11570032    -0.15700
C317        C  0.10405259  0.10015356  0.15248499    -0.10500
C318        C  0.12482857  0.08694630  0.18697126     0.08800
C319        C  0.21388967  0.11003159  0.14740503     0.09900
S320        S  0.17279282  0.13644751  0.06239677    -0.24800
H321        H  0.10443453  0.12531024  0.08859350     0.20100
S322        S  0.10792923  0.06219637  0.23242987    -0.30500
H323        H  0.17614735  0.08153475  0.21191146     0.10400
C324        C  0.23061023  0.14203653  0.14769391     0.03600
C325        C  0.26624397  0.14337349  0.14221325    -0.12800
C326        C  0.28577322  0.11330093  0.13808702    -0.08500
C327        C  0.26906926  0.08124228  0.14149049     0.07100
C328        C  0.23340513  0.07999091  0.14511742    -0.13600
S329        S  0.20668380  0.18111161  0.15571357    -0.30500
H330        H  0.27894989  0.16797233  0.14061141     0.11300
S331        S  0.29173887  0.04109057  0.14370757    -0.27600
H332        H  0.22071096  0.05533576  0.14633278     0.08600
H333        H  0.08302323  0.04521170  0.20678879     0.27000
H334        H  0.23495893  0.20338871  0.15678416     0.21800
H335        H  0.32041540  0.05416651  0.16635698     0.27100
H336        H  0.20324260  0.11733890  0.06250962     0.15900
C337        C  0.02627254  0.87082326  0.13700124    -0.11300
C338        C  0.99618815  0.88699413  0.15114945     0.15200
C339        C  0.96637079  0.86716857  0.15773802     0.02100
C340        C  0.96705643  0.83193713  0.14899713    -0.15700
C341        C  0.99718030  0.81577260  0.13489489    -0.10500
C342        C  0.02710422  0.83557109  0.12880176     0.08800
C343        C  0.99583222  0.92488586  0.15430388     0.09900
S344        S  0.92697716  0.88524148  0.17815097    -0.24800
H345        H  0.94422115  0.81680593  0.15460287     0.20100
S346        S  0.06691221  0.81756357  0.10959242    -0.30500
H347        H  0.04907973  0.88596845  0.13124439     0.10400
C348        C  0.01469548  0.94276349  0.18687790     0.03600
C349        C  0.01427143  0.97875820  0.18720481    -0.12800
C350        C  0.99586697  0.99723828  0.15502501    -0.08500
C351        C  0.97641688  0.97905026  0.12305553     0.07100
C352        C  0.97691937  0.94328133  0.12283147    -0.13600
S353        S  0.03920272  0.91976765  0.22799191    -0.30500
H354        H  0.02895817  0.99257139  0.21192970     0.11300
S355        S  0.94947288  0.99971983  0.08248886    -0.27600
H356        H  0.96231860  0.92956605  0.09787430     0.08600
H357        H  0.05211853  0.79149775  0.08366142     0.27000
H358        H  0.05459238  0.94861859  0.24761772     0.21800
H359        H  0.93773532  0.02531746  0.11159217     0.27100
H360        H  0.94233243  0.91135115  0.20347573     0.15900
C361        C  0.84128067  0.08663657  0.17567774    -0.11300
C362        C  0.82622206  0.10918814  0.14506614     0.15200
C363        C  0.84747382  0.13023523  0.11872298     0.02100
C364        C  0.88297729  0.12663130  0.12139586    -0.15700
C365        C  0.89811299  0.10359945  0.15127901    -0.10500
C366        C  0.87690904  0.08347377  0.17893468     0.08800
C367        C  0.78842854  0.10953989  0.14052329     0.04300
S368        S  0.83102709  0.16268569  0.08176403    -0.24800
H369        H  0.89902557  0.14266248  0.10068771     0.20100
S370        S  0.89349395  0.05231651  0.21751627    -0.30500
H371        H  0.82511470  0.07064431  0.19627441     0.10400
C372        C  0.77210291  0.09931899  0.10079171     0.03600
C373        C  0.73639839  0.10161372  0.09738495    -0.12800
C374        C  0.71649129  0.11295738  0.13323650    -0.08500
C375        C  0.73287338  0.12233939  0.17343885     0.07100
C376        C  0.76855437  0.12039495  0.17662773    -0.13600
S377        S  0.79646533  0.08169292  0.05518882    -0.30500
H378        H  0.72373492  0.09363388  0.06708594     0.11300
S379        S  0.70998297  0.13753943  0.22160063    -0.27600
H380        H  0.78102173  0.12796916  0.20728885     0.08600
H381        H  0.92088439  0.04179431  0.19057025     0.27000
H382        H  0.76889819  0.07736938  0.02562716     0.21800
H383        H  0.68318281  0.15311642  0.19790465     0.27100
H384        H  0.80100049  0.16937754  0.10587866     0.15900
C385        C  0.02359872  0.25636712  0.11560706    -0.11300
C386        C  0.00368434  0.27559597  0.14520899     0.15200
C387        C  0.98415477  0.25829759  0.17781254     0.02100
C388        C  0.98507349  0.22244161  0.17992700    -0.15700
C389        C  0.00499555  0.20326943  0.15015676    -0.10500
C390        C  0.02500716  0.22068938  0.11823010     0.08800
C391        C  0.00292872  0.31339846  0.13975467     0.09900
S392        S  0.95733347  0.28025423  0.21737926    -0.24800
H393        H  0.96964019  0.20938308  0.20455285     0.20100
S394        S  0.05391529  0.19909830  0.08095539    -0.30500
H395        H  0.03846088  0.26936214  0.09033689     0.10400
C396        C  0.03285228  0.33349906  0.14382269     0.03600
C397        C  0.03100952  0.36897864  0.13695619    -0.12800
C398        C  0.99995186  0.38489100  0.12611001    -0.08500
C399        C  0.97019697  0.36464870  0.12117726     0.07100
C400        C  0.97199022  0.32927915  0.12820578    -0.13600
S401        S  0.07325860  0.31433144  0.15908114    -0.30500
H402        H  0.05369148  0.38461289  0.14096139     0.11300
S403        S  0.92939892  0.38221725  0.10496203    -0.27600
H404        H  0.94914301  0.31387524  0.12401587     0.08600
H405        H  0.06497675  0.17511642  0.11270810     0.27000
H406        H  0.09277771  0.34459150  0.15861391     0.21800
H407        H  0.94276930  0.40896840  0.07899980     0.27100
H408        H  0.97696855  0.31036419  0.21973162     0.15900
C409        C  0.84577789  0.12234984  0.30861078    -0.11300
C410        C  0.82904150  0.10737903  0.34500521     0.15200
C411        C  0.84870432  0.09144881  0.37849782     0.02100
C412        C  0.88428368  0.09036216  0.37459649    -0.15700
C413        C  0.90124032  0.10587488  0.33874649    -0.10500
C414        C  0.88157785  0.12261107  0.30572628     0.08800
C415        C  0.79114342  0.10852631  0.34740363     0.09900
S416        S  0.83008493  0.07266081  0.42760657    -0.24800
H417        H  0.89891853  0.07760321  0.40030621     0.20100
S418        S  0.90039424  0.14672692  0.26095732    -0.30500
H419        H  0.83083543  0.13479669  0.28292877     0.10400
C420        C  0.77338945  0.13955356  0.35383010     0.03600
C421        C  0.73762743  0.13911605  0.35819191    -0.12800
C422        C  0.71918167  0.10819216  0.35759960    -0.08500
C423        C  0.73737567  0.07704912  0.35238222     0.07100
C424        C  0.77281227  0.07770277  0.34610438    -0.13600
S425        S  0.79634244  0.17956908  0.35840110    -0.30500
H426        H  0.72391748  0.16299639  0.36207378     0.11300
S427        S  0.71756174  0.03543909  0.35639923    -0.27600
H428        H  0.78649191  0.05378636  0.34199264     0.08600
H429        H  0.92607308  0.16168022  0.28744208     0.27000
H430        H  0.76782814  0.20030241  0.36767708     0.21800
H431        H  0.69312182  0.04519837  0.38822061     0.27100
H432        H  0.80311481  0.09626379  0.43153326     0.15900
C433        C  0.03827855  0.33431585  0.34762592    -0.11300
C434        C  0.00733454  0.31605148  0.34638985     0.15200
C435        C  0.97615814  0.33434282  0.34837914     0.02100
C436        C  0.97667742  0.36994142  0.35310546    -0.15700
C437        C  0.00757658  0.38827575  0.35414570    -0.10500
C438        C  0.03873254  0.37013412  0.35011551     0.08800
C439        C  0.00816672  0.27801511  0.34523088     0.09900
S440        S  0.93476821  0.31400810  0.34469777    -0.24800
H441        H  0.95260759  0.38354825  0.35575839     0.20100
S442        S  0.07973770  0.39105486  0.34600164    -0.30500
H443        H  0.06230691  0.32055303  0.34605991     0.10400
C444        C  0.02260580  0.25972097  0.30940782     0.03600
C445        C  0.02096896  0.22380387  0.30906670    -0.12800
C446        C  0.00542326  0.20562149  0.34392905    -0.08500
C447        C  0.99092883  0.22416426  0.37967469     0.07100
C448        C  0.99313324  0.25987674  0.38032623    -0.13600
S449        S  0.04277977  0.28190844  0.26382224    -0.30500
H450        H  0.03217558  0.20977314  0.28168480     0.11300
S451        S  0.96735641  0.20422093  0.42410496    -0.27600
H452        H  0.98199865  0.27381943  0.40789087     0.08600
H453        H  0.06759296  0.41996225  0.32305313     0.27000
H454        H  0.04975828  0.25288315  0.23767200     0.21800
H455        H  0.94966323  0.18141917  0.39603528     0.27100
H456        H  0.94523175  0.28643176  0.31799534     0.15900
C457        C  0.16173323  0.08534777  0.37392521    -0.11300
C458        C  0.17889355  0.10832591  0.34592642     0.15200
C459        C  0.15994462  0.12742055  0.31457315     0.02100
C460        C  0.12443114  0.12343924  0.31234154    -0.15700
C461        C  0.10710224  0.10130261  0.34133975    -0.10500
C462        C  0.12618693  0.08163958  0.37206059     0.08800
C463        C  0.21658727  0.11114474  0.34948872     0.09900
S464        S  0.17932261  0.15806403  0.27750823    -0.24800
H465        H  0.11005163  0.13869664  0.28874485     0.20100
S466        S  0.10707260  0.05070413  0.40891433    -0.30500
H467        H  0.17623868  0.07003805  0.39730962     0.10400
C468        C  0.23241399  0.12337444  0.38855707     0.03600
C469        C  0.26814210  0.12559316  0.39044811    -0.12800
C470        C  0.28841240  0.11601814  0.35408719    -0.08500
C471        C  0.27261589  0.10358826  0.31506191     0.07100
C472        C  0.23683892  0.10119348  0.31325306    -0.13600
S473        S  0.20720977  0.13720970  0.43556603    -0.30500
H474        H  0.28047572  0.13510226  0.42023598     0.11300
S475        S  0.29783640  0.08935711  0.26828071    -0.27600
H476        H  0.22445015  0.09140691  0.28365680     0.08600
H477        H  0.08124934  0.04065687  0.37918720     0.27000
H478        H  0.23474805  0.14437220  0.46423909     0.21800
H479        H  0.27025489  0.07974373  0.24094536     0.27100
H480        H  0.20548517  0.16827259  0.30675767     0.15900
C481        C  0.96853067  0.94650665  0.33571584    -0.11300
C482        C  0.99878393  0.92781684  0.34200898     0.15200
C483        C  0.03044743  0.94531556  0.34289687     0.02100
C484        C  0.03099225  0.98105400  0.33945955    -0.15700
C485        C  0.00067821  0.99976676  0.33440104    -0.10500
C486        C  0.96916076  0.98223564  0.33171821     0.08800
C487        C  0.99643750  0.89029390  0.34867527     0.09900
S488        S  0.07094747  0.92363937  0.34882233    -0.24800
H489        H  0.05526156  0.99435905  0.34099594     0.20100
S490        S  0.92883642  0.00412839  0.32551824    -0.30500
H491        H  0.94421010  0.93319569  0.33472042     0.10400
C492        C  0.00215923  0.87530103  0.39063252     0.03600
C493        C  0.00153433  0.83950484  0.39485701    -0.12800
C494        C  0.99478180  0.81834114  0.35809699    -0.08500
C495        C  0.98712417  0.83369054  0.31661100     0.07100
C496        C  0.98836830  0.86935338  0.31232829    -0.13600
S497        S  0.00996106  0.90178896  0.43883393    -0.30500
H498        H  0.00702839  0.82786728  0.42671061     0.11300
S499        S  0.97475417  0.80944288  0.26812890    -0.27600
H500        H  0.98300077  0.88091492  0.28034157     0.08600
H501        H  0.94140542  0.03095588  0.29914323     0.27000
H502        H  0.01230202  0.87500126  0.46989706     0.21800
H503        H  0.95848589  0.78294515  0.29163524     0.27100
H504        H  0.06087083  0.89283902  0.32847928     0.15900
C505        C  0.66071855  0.63216726  0.39871821    -0.11300
C506        C  0.67685888  0.61535426  0.36333560     0.15200
C507        C  0.65665015  0.60055235  0.32946164     0.02100
C508        C  0.62096884  0.60337318  0.33133331    -0.15700
C509        C  0.60464667  0.61985727  0.36700938    -0.10500
C510        C  0.62503513  0.63496212  0.40068577     0.08800
C511        C  0.71475761  0.61381792  0.36282723     0.09900
S512        S  0.67469716  0.57697394  0.28361916    -0.24800
H513        H  0.60578116  0.59144986  0.30544128     0.20100
S514        S  0.60739427  0.65940779  0.44599413    -0.30500
H515        H  0.67613454  0.64377880  0.42462727     0.10400
C516        C  0.73430752  0.63270722  0.33199489     0.03600
C517        C  0.77013223  0.63013228  0.33282380    -0.12800
C518        C  0.78671738  0.60922067  0.36397693    -0.08500
C519        C  0.76711732  0.59040891  0.39483319     0.07100
C520        C  0.73142884  0.59315191  0.39418573    -0.13600
S521        S  0.71372794  0.66091967  0.29266144    -0.30500
H522        H  0.78539785  0.64482107  0.30969130     0.11300
S523        S  0.78615913  0.56262922  0.43585039    -0.27600
H524        H  0.71643581  0.57865935  0.41789623     0.08600
H525        H  0.58203022  0.67538145  0.42006388     0.27000
H526        H  0.74376039  0.67309221  0.27241132     0.21800
H527        H  0.81481141  0.55317584  0.41054681     0.27100
H528        H  0.70387267  0.56513551  0.30615899     0.15900
C529        C  0.51596002  0.45760724  0.33277212    -0.11300
C530        C  0.50756519  0.44011651  0.37190356     0.15200
C531        C  0.49904200  0.45895910  0.41032068     0.02100
C532        C  0.49816843  0.49472301  0.40835559    -0.15700
C533        C  0.50661018  0.51251823  0.36920926    -0.10500
C534        C  0.51611426  0.49341567  0.33109059     0.08800
C535        C  0.50839776  0.40225713  0.37144777     0.09900
S536        S  0.48911458  0.43906659  0.46286244    -0.24800
H537        H  0.49091662  0.50875731  0.43793960     0.20100
S538        S  0.53014670  0.51272376  0.27989065    -0.30500
H539        H  0.52297416  0.44316078  0.30340524     0.10400
C540        C  0.47816046  0.38263774  0.37198487     0.03600
C541        C  0.48036365  0.34682241  0.37083486    -0.12800
C542        C  0.51216593  0.33015676  0.36823525    -0.08500
C543        C  0.54239473  0.35006254  0.36664646     0.07100
C544        C  0.54016139  0.38576954  0.36883355    -0.13600
S545        S  0.43678633  0.40319210  0.37283642    -0.30500
H546        H  0.45720489  0.33162943  0.37190960     0.11300
S547        S  0.58439780  0.33177742  0.35974964    -0.27600
H548        H  0.56337293  0.40093913  0.36766864     0.08600
H549        H  0.55223383  0.53615161  0.30096301     0.27000
H550        H  0.41704039  0.37308538  0.37153778     0.21800
H551        H  0.57374257  0.30446454  0.33258240     0.27100
H552        H  0.50952436  0.40981455  0.45698992     0.15900
C553        C  0.27073442  0.61870560  0.41644955    -0.11300
C554        C  0.28883309  0.60767073  0.37884427     0.15200
C555        C  0.27053925  0.59527152  0.34162870     0.02100
C556        C  0.23477147  0.59556359  0.34212318    -0.15700
C557        C  0.21659201  0.60683722  0.37953138    -0.10500
C558        C  0.23488897  0.61855889  0.41718090     0.08800
C559        C  0.32668241  0.60997794  0.37902491     0.09900
S560        S  0.29121180  0.57825139  0.29276994    -0.24800
H561        H  0.22092968  0.58611243  0.31340639     0.20100
S562        S  0.21420808  0.63454466  0.46658179    -0.30500
H563        H  0.28463659  0.62823491  0.44502035     0.10400
C564        C  0.34422523  0.63303321  0.35110637     0.03600
C565        C  0.38009373  0.63278079  0.35030633    -0.12800
C566        C  0.39886588  0.61045342  0.37752943    -0.08500
C567        C  0.38118942  0.58774648  0.40600079     0.07100
C568        C  0.34536915  0.58799331  0.40673463    -0.13600
S569        S  0.32100238  0.66354312  0.31755019    -0.30500
H570        H  0.39365054  0.65051159  0.32904622     0.11300
S571        S  0.40268198  0.55665035  0.44036265    -0.27600
H572        H  0.33191838  0.57019968  0.42805810     0.08600
H573        H  0.18518155  0.64771866  0.44493740     0.27000
H574        H  0.34957468  0.67770826  0.29594043     0.21800
H575        H  0.42838591  0.54905036  0.40921440     0.27100
H576        H  0.32063749  0.56611824  0.31450873     0.15900
C577        C  0.52364294  0.84659266  0.37925098    -0.11300
C578        C  0.49244069  0.82941155  0.37372517     0.15200
C579        C  0.46202831  0.84855776  0.36888861     0.02100
C580        C  0.46367359  0.88436648  0.36854747    -0.15700
C581        C  0.49494426  0.90163201  0.37378639    -0.10500
C582        C  0.52521088  0.88236727  0.37983974     0.08800
C583        C  0.49270864  0.79154332  0.37366306     0.09900
S584        S  0.42046509  0.82899845  0.36266048    -0.24800
H585        H  0.44034213  0.89893838  0.36404353     0.20100
S586        S  0.56642547  0.90172663  0.38974186    -0.30500
H587        H  0.54694818  0.83194183  0.38356902     0.10400
C588        C  0.48995304  0.77259132  0.33407199     0.03600
C589        C  0.49145635  0.73671225  0.33573778    -0.12800
C590        C  0.49555887  0.71911808  0.37630957    -0.08500
C591        C  0.49779083  0.73864058  0.41608913     0.07100
C592        C  0.49679366  0.77440474  0.41410163    -0.13600
S593        S  0.48530166  0.79417798  0.28135228    -0.30500
H594        H  0.48957733  0.72236118  0.30507167     0.11300
S595        S  0.50234833  0.72013552  0.47055131    -0.27600
H596        H  0.49888748  0.78911696  0.44451896     0.08600
H597        H  0.55387795  0.93015054  0.41331584     0.27000
H598        H  0.48506371  0.76466760  0.25453256     0.21800
H599        H  0.47160435  0.70152471  0.46712794     0.27100
H600        H  0.42781693  0.79872529  0.38594360     0.15900
C601        C  0.34023527  0.61156511  0.16426760    -0.11300
C602        C  0.32402020  0.60845635  0.12295433     0.15200
C603        C  0.34381879  0.60872135  0.08388145     0.02100
C604        C  0.37939202  0.61145110  0.08703387    -0.15700
C605        C  0.39612171  0.61397775  0.12841512    -0.10500
C606        C  0.37582069  0.61484660  0.16752677     0.08800
C607        C  0.28634439  0.60595088  0.12174294     0.09900
S608        S  0.32544699  0.60594736  0.02892030    -0.24800
H609        H  0.39409727  0.61119870  0.05656095     0.20100
S610        S  0.39305215  0.62064784  0.22255218    -0.30500
H611        H  0.32490557  0.61197245  0.19425425     0.10400
C612        C  0.26957953  0.57442465  0.12823243     0.03600
C613        C  0.23373263  0.57314879  0.12687429    -0.12800
C614        C  0.21439334  0.60285233  0.11930909    -0.08500
C615        C  0.23142005  0.63430863  0.11194289     0.07100
C616        C  0.26714803  0.63555595  0.11366351    -0.13600
S617        S  0.29395814  0.53587724  0.13785313    -0.30500
H618        H  0.22062331  0.54910449  0.13246029     0.11300
S619        S  0.20913220  0.67352934  0.09925312    -0.27600
H620        H  0.28015050  0.65970367  0.10822488     0.08600
H621        H  0.41073094  0.65078702  0.21111317     0.27000
H622        H  0.26584854  0.51357831  0.14165538     0.21800
H623        H  0.18191920  0.65793550  0.07627119     0.27100
H624        H  0.29574883  0.58782616  0.04051659     0.15900
C625        C  0.48240823  0.84695303  0.16054606    -0.11300
C626        C  0.49385328  0.82898482  0.12304263     0.15200
C627        C  0.50229604  0.84737978  0.08412209     0.02100
C628        C  0.49945515  0.88313242  0.08380858    -0.15700
C629        C  0.48892647  0.90115588  0.12176610    -0.10500
C630        C  0.47974401  0.88266191  0.16033657     0.08800
C631        C  0.49497084  0.79104428  0.12497265     0.09900
S632        S  0.51770287  0.82693663  0.03423739    -0.24800
H633        H  0.50668486  0.89711664  0.05418942     0.20100
S634        S  0.46371554  0.90294118  0.21000827    -0.30500
H635        H  0.47507271  0.83294355  0.19009460     0.10400
C636        C  0.51743137  0.77359081  0.15388600     0.03600
C637        C  0.51707231  0.73764271  0.15506906    -0.12800
C638        C  0.49490172  0.71877539  0.12767744    -0.08500
C639        C  0.47182844  0.73642200  0.09963009     0.07100
C640        C  0.47234298  0.77220639  0.09830634    -0.13600
S641        S  0.54778124  0.79696160  0.18758052    -0.30500
H642        H  0.53482307  0.72412331  0.17640039     0.11300
S643        S  0.43997427  0.71490677  0.06638238    -0.27600
H644        H  0.45454052  0.78556546  0.07681921     0.08600
H645        H  0.44800425  0.93062907  0.18822551     0.27000
H646        H  0.55998763  0.76869728  0.21179664     0.21800
H647        H  0.43304588  0.68924973  0.09788333     0.27100
H648        H  0.53387458  0.79931257  0.05554810     0.15900
C649        C  0.65748878  0.63392329  0.09728629    -0.11300
C650        C  0.67378924  0.60687988  0.11953390     0.15200
C651        C  0.65392905  0.58362395  0.14450399     0.02100
C652        C  0.61855812  0.58847103  0.14777019    -0.15700
C653        C  0.60222632  0.61525731  0.12510226    -0.10500
C654        C  0.62199843  0.63829928  0.09969008     0.08800
C655        C  0.71165697  0.60501873  0.11860636     0.09900
S656        S  0.67197787  0.54652422  0.17135952    -0.24800
H657        H  0.60345330  0.57033497  0.16667841     0.20100
S658        S  0.60365868  0.67448422  0.07111033    -0.30500
H659        H  0.67264532  0.65211277  0.07854731     0.10400
C660        C  0.72970777  0.59810330  0.07911074     0.03600
C661        C  0.76563307  0.59760902  0.07979111    -0.12800
C662        C  0.78394227  0.60414174  0.11914977    -0.08500
C663        C  0.76560428  0.61150696  0.15854772     0.07100
C664        C  0.72983005  0.61142287  0.15791600    -0.13600
S665        S  0.70698402  0.58870547  0.02825102    -0.30500
H666        H  0.77957629  0.59166546  0.04970872     0.11300
S667        S  0.78610995  0.62274699  0.21024635    -0.27600
H668        H  0.71596277  0.61724433  0.18815853     0.08600
H669        H  0.57757932  0.68053652  0.10228707     0.27000
H670        H  0.73574885  0.58915543  0.00040118     0.21800
H671        H  0.81359107  0.64044075  0.19075061     0.27100
H672        H  0.69911752  0.54193203  0.14136003     0.15900
C673        C  0.50132312  0.38647566  0.08178964    -0.11300
C674        C  0.51182322  0.40289783  0.12104575     0.15200
C675        C  0.52185498  0.38278008  0.15782661     0.02100
C676        C  0.52056945  0.34703762  0.15475299    -0.15700
C677        C  0.51016055  0.33061353  0.11545775    -0.10500
C678        C  0.50040300  0.35072836  0.07852457     0.08800
C679        C  0.51005365  0.44086793  0.12322633     0.09900
S680        S  0.53692286  0.40100962  0.20937807    -0.24800
H681        H  0.52823890  0.33181160  0.18315674     0.20100
S682        S  0.48526269  0.33261192  0.02695500    -0.30500
H683        H  0.49298485  0.40170087  0.05374765     0.10400
C684        C  0.52937590  0.46168519  0.09432459     0.03600
C685        C  0.52544770  0.49735817  0.09592327    -0.12800
C686        C  0.50300936  0.51285414  0.12626736    -0.08500
C687        C  0.48378576  0.49194826  0.15534456     0.07100
C688        C  0.48755753  0.45631758  0.15353545    -0.13600
S689        S  0.56015946  0.44301948  0.05669452    -0.30500
H690        H  0.54051833  0.51338680  0.07407618     0.11300
S691        S  0.45289824  0.50891480  0.19395330    -0.27600
H692        H  0.47229797  0.44040675  0.17534582     0.08600
H693        H  0.46935819  0.30390148  0.04607623     0.27000
H694        H  0.57016088  0.47367151  0.03591946     0.21800
H695        H  0.44091866  0.53475996  0.16536294     0.27100
H696        H  0.55127450  0.43064115  0.19053869     0.15900
C697        C  0.50937047  0.29265092  0.61469972     0.03200
C698        C  0.52934158  0.27399580  0.58433825    -0.13000
C699        C  0.52833915  0.23801701  0.58409580     0.00700
C700        C  0.50810350  0.22079481  0.61551823    -0.11500
C701        C  0.48868979  0.23914573  0.64666478     0.03200
C702        C  0.48909617  0.27504124  0.64563634    -0.10900
H703        H  0.54512693  0.28749435  0.56052522     0.08800
H704        H  0.50756561  0.19304928  0.61583266     0.06300
H705        H  0.47409639  0.28940720  0.66948617     0.06100
O706        O  0.50190649  0.56746347  0.59114649    -0.71700
O707        O  0.49619824  0.66443231  0.59170724    -0.72000
O708        O  0.54756519  0.61865661  0.59049414    -0.71800
O709        O  0.45066536  0.61342647  0.59247274    -0.71800
O710        O  0.45135662  0.61612510  0.66428255    -0.71800
O711        O  0.54857234  0.61490003  0.66251985    -0.71800
O712        O  0.50039645  0.66448061  0.66366225    -0.71700
O713        O  0.49947444  0.56702712  0.66321185    -0.71900
V714        V  0.49911893  0.61598025  0.59284677     1.35200
V715        V  0.49995563  0.61570890  0.66208927     1.35200
C716        C  0.50110632  0.55065867  0.62701872     0.77500
C717        C  0.49725882  0.68100487  0.62773749     0.77600
C718        C  0.56457761  0.61672935  0.62612902     0.77400
C719        C  0.43426782  0.61464338  0.62865942     0.77400
C720        C  0.82193486  0.60293513  0.61801814     0.03200
C721        C  0.84004863  0.62307790  0.58727443    -0.13000
C722        C  0.87595156  0.62251042  0.58634047     0.00700
C723        C  0.89373902  0.60243018  0.61727205    -0.11500
C724        C  0.87608436  0.58245713  0.64840978     0.03200
C725        C  0.84018082  0.58196099  0.64772533    -0.10900
H726        H  0.82616788  0.63900849  0.56394555     0.08800
H727        H  0.92147106  0.60254668  0.61732229     0.06300
H728        H  0.82639733  0.56622005  0.67132338     0.06100
C729        C  0.49017103  0.93907150  0.62113557     0.03200
C730        C  0.51126717  0.95652774  0.65137490    -0.13000
C731        C  0.51246618  0.99238772  0.65172745     0.00700
C732        C  0.49337849  0.01084129  0.62040944    -0.11500
C733        C  0.47298896  0.99375124  0.58902093     0.03200
C734        C  0.47113727  0.95780688  0.58984754    -0.10900
H735        H  0.52625666  0.94211623  0.67520903     0.08800
H736        H  0.49460931  0.03857327  0.62024567     0.06300
H737        H  0.45538717  0.94438204  0.56583313     0.06100
C738        C  0.17664941  0.60049478  0.62127338     0.03200
C739        C  0.15854983  0.61944770  0.65306627    -0.13000
C740        C  0.12276032  0.61778780  0.65502044     0.00700
C741        C  0.10499556  0.59736067  0.62427653    -0.11500
C742        C  0.12281864  0.57834722  0.59214849     0.03200
C743        C  0.15872322  0.57944865  0.59142609    -0.10900
H744        H  0.17247097  0.63518420  0.67664170     0.08800
H745        H  0.07728265  0.59654033  0.62503197     0.06300
H746        H  0.17268036  0.56514986  0.56647209     0.06100
C747        C  0.49512540  0.93954694  0.87222653     0.03200
C748        C  0.47522563  0.95840899  0.90232561    -0.13000
C749        C  0.47591355  0.99432265  0.90184251     0.00700
C750        C  0.49572259  0.01138119  0.86989651    -0.11500
C751        C  0.51502372  0.99281770  0.83883892     0.03200
C752        C  0.51485980  0.95689819  0.84045052    -0.10900
H753        H  0.46014751  0.94508403  0.92709107     0.08800
H754        H  0.49609307  0.03912730  0.86921028     0.06300
H755        H  0.52956033  0.94234935  0.81647751     0.06100
O756        O  0.45189286  0.61488803  0.83899613    -0.71700
O757        O  0.54899241  0.61815456  0.83386811    -0.72000
O758        O  0.50194081  0.56787434  0.83460766    -0.71800
O759        O  0.49863717  0.66512322  0.83845894    -0.71800
O760        O  0.49963695  0.66339306  0.91028529    -0.71800
O761        O  0.50597672  0.56650965  0.90640078    -0.71800
O762        O  0.55124062  0.61812597  0.90587134    -0.71700
O763        O  0.45434275  0.61154149  0.91094617    -0.71900
V764        V  0.50044280  0.61648113  0.83784431     1.35200
V765        V  0.50275345  0.61495529  0.90697673     1.35200
C766        C  0.43660663  0.61217415  0.87580894     0.77500
C767        C  0.56672833  0.61902592  0.86904946     0.77600
C768        C  0.50495162  0.55053855  0.86985941     0.77400
C769        C  0.49806113  0.68098687  0.87514724     0.77400
C770        C  0.17876707  0.60504894  0.87819529     0.03200
C771        C  0.16058350  0.62367877  0.84597143    -0.13000
C772        C  0.12480373  0.62123232  0.84324337     0.00700
C773        C  0.10724968  0.60053030  0.87367526    -0.11500
C774        C  0.12506530  0.58190473  0.90610436     0.03200
C775        C  0.16089342  0.58380492  0.90782653    -0.10900
H776        H  0.17440387  0.63964942  0.82265268     0.08800
H777        H  0.07958626  0.59888938  0.87215450     0.06300
H778        H  0.17482849  0.56929884  0.93260556     0.06100
C779        C  0.51258892  0.29219063  0.86684889     0.03200
C780        C  0.53176950  0.27324981  0.89776599    -0.13000
C781        C  0.53094649  0.23730117  0.89725523     0.00700
C782        C  0.51108692  0.22032155  0.86516077    -0.11500
C783        C  0.49177492  0.23896050  0.83416498     0.03200
C784        C  0.49241917  0.27482411  0.83545816    -0.10900
H785        H  0.54643142  0.28651192  0.92305863     0.08800
H786        H  0.51036388  0.19258073  0.86463333     0.06300
H787        H  0.47764834  0.28933215  0.81148125     0.06100
C788        C  0.82447690  0.60856175  0.86467101     0.03200
C789        C  0.84242077  0.58844418  0.83396959    -0.13000
C790        C  0.87829666  0.58716251  0.83506909     0.00700
C791        C  0.89611476  0.60596746  0.86752680    -0.11500
C792        C  0.87832596  0.62605846  0.89863123     0.03200
C793        C  0.84246877  0.62748947  0.89667865    -0.10900
H794        H  0.82841605  0.57400243  0.80912293     0.08800
H795        H  0.92380088  0.60485034  0.86866654     0.06300
H796        H  0.82842699  0.64268292  0.92065310     0.06100
C797        C  0.99743820  0.78061418  0.86365787     0.03200
C798        C  0.01918888  0.76151650  0.83595728    -0.13000
C799        C  0.02080376  0.72576443  0.83960224     0.00700
C800        C  0.00200386  0.70922894  0.87284059    -0.11500
C801        C  0.98125077  0.72796802  0.90207157     0.03200
C802        C  0.97866369  0.76366149  0.89693913    -0.10900
H803        H  0.03396632  0.77442200  0.81053144     0.08800
H804        H  0.00335671  0.68159277  0.87570660     0.06300
H805        H  0.96219295  0.77825575  0.91880871     0.06100
O806        O  0.95556061  0.10315879  0.87425022    -0.71700
O807        O  0.05235914  0.09976941  0.87594389    -0.72000
O808        O  0.00557876  0.14996330  0.87733482    -0.71800
O809        O  0.00219656  0.05286793  0.87263562    -0.71800
O810        O  0.00394648  0.05480518  0.80048208    -0.71800
O811        O  0.00516198  0.15212185  0.80532285    -0.71800
O812        O  0.05322553  0.10305611  0.80393848    -0.71700
O813        O  0.95588627  0.10424187  0.80217799    -0.71900
V814        V  0.00395851  0.10146013  0.87360214     1.35200
V815        V  0.00457863  0.10346402  0.80433449     1.35200
C816        C  0.93912714  0.10451716  0.83810846     0.77500
C817        C  0.06933627  0.10102980  0.84032696     0.77600
C818        C  0.00528917  0.16767213  0.84219765     0.77400
C819        C  0.00241038  0.03737172  0.83578848     0.77400
C820        C  0.32603333  0.11811598  0.85868288     0.03200
C821        C  0.34548604  0.13902575  0.83043053    -0.13000
C822        C  0.38124475  0.14016854  0.83451610     0.00700
C823        C  0.39735099  0.12133103  0.86824133    -0.11500
C824        C  0.37799514  0.10116575  0.89754272     0.03200
C825        C  0.34241791  0.09938767  0.89223300    -0.10900
H826        H  0.33286736  0.15357554  0.80452027     0.08800
H827        H  0.42496191  0.12219167  0.87143060     0.06300
H828        H  0.32733057  0.08356980  0.91438116     0.06100
C829        C  0.00606771  0.42609067  0.85907582     0.03200
C830        C  0.02440846  0.44302529  0.89280192    -0.13000
C831        C  0.02211502  0.47876339  0.89766120     0.00700
C832        C  0.00160900  0.49757035  0.86802566    -0.11500
C833        C  0.98297649  0.48087948  0.83455025     0.03200
C834        C  0.98504251  0.44521170  0.83057817    -0.10900
H835        H  0.03981693  0.42828169  0.91581568     0.08800
H836        H  0.00002697  0.52517527  0.87106907     0.06300
H837        H  0.97100687  0.43233724  0.80433384     0.06100
C838        C  0.68118243  0.10939393  0.86126302     0.03200
C839        C  0.66075009  0.09133388  0.83074926    -0.13000
C840        C  0.62501577  0.09187051  0.83406557     0.00700
C841        C  0.60948180  0.11116958  0.86759497    -0.11500
C842        C  0.62928695  0.12991794  0.89797192     0.03200
C843        C  0.66516677  0.12918343  0.89448113    -0.10900
H844        H  0.67267087  0.07728038  0.80386536     0.08800
H845        H  0.58181365  0.11165205  0.86994121     0.06300
H846        H  0.68059310  0.14325705  0.91821105     0.06100
C847        C  0.99917855  0.42270564  0.62272782     0.03200
C848        C  0.97906606  0.44181546  0.65235173    -0.13000
C849        C  0.97927170  0.47769690  0.65085199     0.00700
C850        C  0.99893884  0.49440014  0.61857442    -0.11500
C851        C  0.01888046  0.47568048  0.58838364     0.03200
C852        C  0.01948562  0.43978302  0.59118824    -0.10900
H853        H  0.96418712  0.42871269  0.67750465     0.08800
H854        H  0.99888244  0.52213669  0.61714570     0.06300
H855        H  0.03499885  0.42509658  0.56826105     0.06100
O856        O  0.04944862  0.09762537  0.61749292    -0.71700
O857        O  0.95265713  0.10220587  0.61675381    -0.72000
O858        O  0.00349028  0.14819285  0.61608999    -0.71800
O859        O  0.99853728  0.05130906  0.61829018    -0.71800
O860        O  0.00046443  0.05199066  0.69035417    -0.71800
O861        O  0.00108796  0.14952720  0.68812807    -0.71800
O862        O  0.95212192  0.10084972  0.68888613    -0.71700
O863        O  0.04957923  0.10063711  0.68948571    -0.71900
V864        V  0.00103801  0.09979503  0.61861102     1.35200
V865        V  0.00083802  0.10071952  0.68789454     1.35200
C866        C  0.06614010  0.09900873  0.65343893     0.77500
C867        C  0.93584223  0.10186943  0.65255585     0.77600
C868        C  0.00318438  0.16543338  0.65160869     0.77400
C869        C  0.99836825  0.03507038  0.65458731     0.77400
C870        C  0.67877957  0.11266745  0.62823757     0.03200
C871        C  0.66285631  0.13206988  0.59473800    -0.13000
C872        C  0.62713180  0.13109509  0.58934867     0.00700
C873        C  0.60738488  0.11117659  0.61849508    -0.11500
C874        C  0.62305205  0.09171951  0.65189434     0.03200
C875        C  0.65875502  0.09201351  0.65604301    -0.10900
H876        H  0.67833056  0.14756099  0.57266711     0.08800
H877        H  0.57976254  0.11083261  0.61528277     0.06300
H878        H  0.67097337  0.07685640  0.68170555     0.06100
C879        C  0.99750360  0.77801135  0.63058265     0.03200
C880        C  0.97769493  0.76126785  0.59812676    -0.13000
C881        C  0.97916651  0.72539974  0.59369578     0.00700
C882        C  0.99942524  0.70639924  0.62345210    -0.11500
C883        C  0.01867963  0.72295103  0.65646268     0.03200
C884        C  0.01789754  0.75870599  0.65947504    -0.10900
H885        H  0.96216603  0.77623862  0.57550302     0.08800
H886        H  0.00033038  0.67873228  0.62085360     0.06300
H887        H  0.03260476  0.77162097  0.68506416     0.06100
C888        C  0.32326119  0.11633218  0.63038271     0.03200
C889        C  0.33933438  0.09836148  0.59553111    -0.13000
C890        C  0.37489632  0.10084638  0.58915488     0.00700
C891        C  0.39426043  0.12147261  0.61788297    -0.11500
C892        C  0.37858042  0.13976458  0.65224125     0.03200
C893        C  0.34309491  0.13749704  0.65806448    -0.10900
H894        H  0.32414966  0.08264885  0.57333392     0.08800
H895        H  0.42177586  0.12302538  0.61390445     0.06300
H896        H  0.33111302  0.15101556  0.68538425     0.06100
O897        O  0.11554468  0.53144896  0.54203273    -0.71700
O898        O  0.06801473  0.48446865  0.94983097    -0.72000
O899        O  0.11708411  0.53334517  0.95328076    -0.71800
O900        O  0.06642800  0.48258619  0.53903327    -0.71800
O901        O  0.02760241  0.52235499  0.53923340    -0.71800
O902        O  0.07752090  0.57240516  0.95333148    -0.71800
O903        O  0.02914799  0.52418589  0.94978964    -0.71700
O904        O  0.07601446  0.57052925  0.54258375    -0.71900
V905        V  0.09100198  0.50866208  0.99604986     1.35200
V906        V  0.05334867  0.54654004  0.99623475     1.35200
C907        C  0.10393635  0.55913915  0.55776254     0.77500
C908        C  0.04056061  0.49648820  0.93390237     0.77600
C909        C  0.10585108  0.56161519  0.93887886     0.77400
C910        C  0.03847801  0.49411484  0.55401829     0.77400
O911        O  0.57755467  0.22795456  0.94720292    -0.71700
O912        O  0.62318319  0.17768573  0.53799164    -0.72000
O913        O  0.62454099  0.17702891  0.94872870    -0.71800
O914        O  0.57619211  0.22856029  0.53609329    -0.71800
O915        O  0.53565877  0.19047477  0.53560324    -0.71800
O916        O  0.58335123  0.13967071  0.94803286    -0.71800
O917        O  0.58203496  0.14028231  0.53749591    -0.71700
O918        O  0.53701127  0.18987619  0.94620440    -0.71900
V919        V  0.59962539  0.20207030  0.99249012     1.35200
V920        V  0.56036750  0.16581638  0.99184120     1.35200
C921        C  0.54939276  0.21751877  0.93144913     0.77500
C922        C  0.61018817  0.15051049  0.55342667     0.77600
C923        C  0.61190392  0.14966382  0.93322300     0.77400
C924        C  0.54761219  0.21825189  0.55061060     0.77400
O925        O  0.92490104  0.63333873  0.94901971    -0.71700
O926        O  0.97179303  0.67984522  0.54179320    -0.72000
O927        O  0.92338284  0.63155709  0.53842356    -0.71800
O928        O  0.97325150  0.68162374  0.95223054    -0.71800
O929        O  0.93425755  0.72121208  0.95227683    -0.71800
O930        O  0.88401260  0.67079042  0.53867724    -0.71800
O931        O  0.93308133  0.71970306  0.54158881    -0.71700
O932        O  0.88533121  0.67235398  0.94977929    -0.71900
V933        V  0.94757391  0.65742065  0.99539411     1.35200
V934        V  0.90993979  0.69529907  0.99559755     1.35200
C935        C  0.89700739  0.64476806  0.93378276     0.77500
C936        C  0.96050624  0.70764877  0.55756886     0.77600
C937        C  0.89516022  0.64250130  0.55311666     0.77400
C938        C  0.96216098  0.70971276  0.93715096     0.77400
O939        O  0.38171709  0.05454124  0.94843104    -0.71700
O940        O  0.42668568  0.00332009  0.53861253    -0.72000
O941        O  0.37990878  0.05433433  0.53761309    -0.71800
O942        O  0.42826836  0.00362866  0.94978705    -0.71800
O943        O  0.46897208  0.04154619  0.95092168    -0.71800
O944        O  0.42106323  0.09170626  0.53900912    -0.71800
O945        O  0.46729272  0.04131378  0.54032124    -0.71700
O946        O  0.42292902  0.09188540  0.94953934    -0.71900
V947        V  0.40488440  0.02971477  0.99363177     1.35200
V948        V  0.44422247  0.06588138  0.99496782     1.35200
C949        C  0.39488342  0.08173592  0.93331187     0.77500
C950        C  0.45479303  0.01358861  0.55466892     0.77600
C951        C  0.39246112  0.08156943  0.55356581     0.77400
C952        C  0.45685103  0.01399803  0.93544655     0.77400
O953        O  0.07614678  0.62669554  0.70463858    -0.71700
O954        O  0.02919194  0.67691012  0.79371819    -0.72000
O955        O  0.02788458  0.67532094  0.70437160    -0.71800
O956        O  0.07745789  0.62830092  0.79415816    -0.71800
O957        O  0.11697956  0.66740321  0.79225724    -0.71800
O958        O  0.06725956  0.71461869  0.70280504    -0.71800
O959        O  0.06821663  0.71651741  0.79126024    -0.71700
O960        O  0.11591768  0.66557664  0.70342655    -0.71900
V961        V  0.05346912  0.65254667  0.74920668     1.35200
V962        V  0.09136114  0.69022693  0.74745155     1.35200
C963        C  0.10412230  0.63752511  0.68899970     0.77500
C964        C  0.04038959  0.70549392  0.80712562     0.77600
C965        C  0.03892176  0.70327055  0.68882731     0.77400
C966        C  0.10565993  0.63978231  0.80847902     0.77400
O967        O  0.44182663  0.23390137  0.69698790    -0.71700
O968        O  0.39186618  0.18797078  0.78736699    -0.72000
O969        O  0.44357789  0.23409317  0.78586122    -0.71800
O970        O  0.39016758  0.18768348  0.69899784    -0.71800
O971        O  0.42768860  0.14664452  0.69760051    -0.71800
O972        O  0.48030858  0.19236704  0.78533756    -0.71800
O973        O  0.42917970  0.14674224  0.78675057    -0.71700
O974        O  0.47871767  0.19233624  0.69580744    -0.71900
V975        V  0.41762749  0.21016893  0.74228578     1.35200
V976        V  0.45326253  0.17036950  0.74138268     1.35200
C977        C  0.46881520  0.22097138  0.68104394     0.77500
C978        C  0.40175981  0.15927485  0.80189557     0.77600
C979        C  0.47099678  0.22106167  0.80046338     0.77400
C980        C  0.39972124  0.15900820  0.68400832     0.77400
O981        O  0.97170320  0.52631949  0.69742047    -0.71700
O982        O  0.92512617  0.57717910  0.78621450    -0.72000
O983        O  0.97332175  0.52839488  0.78670411    -0.71800
O984        O  0.92364177  0.57498844  0.69678357    -0.71800
O985        O  0.88386184  0.53616397  0.69932117    -0.71800
O986        O  0.93395583  0.48910139  0.78875373    -0.71800
O987        O  0.88522908  0.53843752  0.78810158    -0.71700
O988        O  0.93247617  0.48693535  0.70024445    -0.71900
V989        V  0.94764213  0.55096804  0.74183697     1.35200
V990        V  0.90962547  0.51343094  0.74412691     1.35200
C991        C  0.96024296  0.49783623  0.68404089     0.77500
C992        C  0.89705419  0.56666517  0.80192980     0.77600
C993        C  0.96240015  0.50046306  0.80240525     0.77400
C994        C  0.89531048  0.56362252  0.68278311     0.77400
O995        O  0.56059783  0.99762578  0.69991307    -0.71700
O996        O  0.61342787  0.04427542  0.78694504    -0.72000
O997        O  0.56192249  0.99796280  0.78867216    -0.71800
O998        O  0.61208953  0.04389093  0.69865475    -0.71800
O999        O  0.57474117  0.08509699  0.69893180    -0.71800
O1000       O  0.52496853  0.03948351  0.78953844    -0.71800
O1001       O  0.57595754  0.08535588  0.78808535    -0.71700
O1002       O  0.52377703  0.03928296  0.70005808    -0.71900
V1003       V  0.58624436  0.02170247  0.74355354     1.35200
V1004       V  0.55055603  0.06146274  0.74414351     1.35200
C1005       C  0.53320238  0.01054136  0.68515816     0.77500
C1006       C  0.60388231  0.07297699  0.80185511     0.77600
C1007       C  0.53485570  0.01086881  0.80438287     0.77400
C1008       C  0.60224717  0.07258155  0.68407228     0.77400
C1009       C  0.16041469  0.09126954  0.68509082    -0.11300
C1010       C  0.17605470  0.10712260  0.64850603     0.15200
C1011       C  0.15545169  0.11853206  0.61287564     0.02100
C1012       C  0.11989228  0.11558087  0.61570887    -0.15700
C1013       C  0.10405786  0.10014340  0.65249423    -0.10500
C1014       C  0.12483197  0.08693355  0.68698048     0.08800
C1015       C  0.21389480  0.11001384  0.64741737     0.09900
S1016       S  0.17280219  0.13643030  0.56240709    -0.24800
H1017       H  0.10444436  0.12529986  0.58860619     0.20100
S1018       S  0.10792977  0.06218443  0.73243818    -0.30500
H1019       H  0.17615029  0.08151699  0.71192236     0.10400
C1020       C  0.23061479  0.14201899  0.64770504     0.03600
C1021       C  0.26624871  0.14335782  0.64222249    -0.12800
C1022       C  0.28577737  0.11328408  0.63809560    -0.08500
C1023       C  0.26907443  0.08122516  0.64150033     0.07100
C1024       C  0.23341105  0.07997439  0.64512946    -0.13600
S1025       S  0.20668834  0.18109404  0.65572498    -0.30500
H1026       H  0.27895178  0.16795198  0.64061976     0.11300
S1027       S  0.29174524  0.04107399  0.64371491    -0.27600
H1028       H  0.22071505  0.05531505  0.64634512     0.08600
H1029       H  0.08302322  0.04520172  0.70679584     0.27000
H1030       H  0.23496242  0.20337268  0.65678289     0.21800
H1031       H  0.32042291  0.05415071  0.66636102     0.27100
H1032       H  0.20324956  0.11731771  0.56252024     0.15900
C1033       C  0.02629016  0.87080950  0.63698397    -0.11300
C1034       C  0.99620997  0.88698201  0.65114408     0.15200
C1035       C  0.96639275  0.86715773  0.65774121     0.02100
C1036       C  0.96707410  0.83192711  0.64899534    -0.15700
C1037       C  0.99719340  0.81576086  0.63488103    -0.10500
C1038       C  0.02711782  0.83555750  0.62878092     0.08800
C1039       C  0.99585506  0.92487408  0.65429990     0.09900
S1040       S  0.92700541  0.88523174  0.67817257    -0.24800
H1041       H  0.94423796  0.81679656  0.65460830     0.20100
S1042       S  0.06692129  0.81754714  0.60956024    -0.30500
H1043       H  0.04909787  0.88595364  0.63122111     0.10400
C1044       C  0.01472169  0.94275194  0.68687089     0.03600
C1045       C  0.01429318  0.97874698  0.68720247    -0.12800
C1046       C  0.99588101  0.99722715  0.65502992    -0.08500
C1047       C  0.97642836  0.97903869  0.62306334     0.07100
C1048       C  0.97693556  0.94327012  0.62283543    -0.13600
S1049       S  0.03923828  0.91975598  0.72797525    -0.30500
H1050       H  0.02898209  0.99256021  0.71192448     0.11300
S1051       S  0.94947555  0.99970775  0.58250606    -0.27600
H1052       H  0.96233082  0.92955388  0.59787899     0.08600
H1053       H  0.05212189  0.79148030  0.58363652     0.27000
H1054       H  0.05462378  0.94860756  0.74760502     0.21800
H1055       H  0.93774288  0.02530520  0.61161274     0.27100
H1056       H  0.94236912  0.91133641  0.70349745     0.15900
C1057       C  0.84128539  0.08662626  0.67567924    -0.11300
C1058       C  0.82622788  0.10917956  0.64506798     0.15200
C1059       C  0.84748013  0.13022563  0.61872457     0.02100
C1060       C  0.88298403  0.12662035  0.62139555    -0.15700
C1061       C  0.89811853  0.10358725  0.65127904    -0.10500
C1062       C  0.87691419  0.08346237  0.67893458     0.08800
C1063       C  0.78843404  0.10953335  0.64052723     0.04300
S1064       S  0.83103465  0.16267793  0.58176729    -0.24800
H1065       H  0.89903119  0.14264949  0.60068941     0.20100
S1066       S  0.89349805  0.05230451  0.71751626    -0.30500
H1067       H  0.82512066  0.07063618  0.69627410     0.10400
C1068       C  0.77210658  0.09931422  0.60079610     0.03600
C1069       C  0.73640238  0.10160956  0.59739333    -0.12800
C1070       C  0.71649631  0.11295183  0.63324574    -0.08500
C1071       C  0.73288021  0.12233244  0.67344749     0.07100
C1072       C  0.76856174  0.12038758  0.67663452    -0.13600
S1073       S  0.79646670  0.08168971  0.55519009    -0.30500
H1074       H  0.72373610  0.09363016  0.56709087     0.11300
S1075       S  0.70999200  0.13753139  0.72161157    -0.27600
H1076       H  0.78102931  0.12795976  0.70729231     0.08600
H1077       H  0.92089114  0.04178418  0.69057368     0.27000
H1078       H  0.76889838  0.07736987  0.52562927     0.21800
H1079       H  0.68319072  0.15310910  0.69791848     0.27100
H1080       H  0.80100879  0.16937071  0.60588305     0.15900
C1081       C  0.02359349  0.25636091  0.61560026    -0.11300
C1082       C  0.00368873  0.27558910  0.64521441     0.15200
C1083       C  0.98416757  0.25829000  0.67782532     0.02100
C1084       C  0.98508524  0.22243327  0.67993806    -0.15700
C1085       C  0.00499800  0.20326143  0.65015558    -0.10500
C1086       C  0.02499966  0.22068233  0.61821902     0.08800
C1087       C  0.00293358  0.31339225  0.63976322     0.09900
S1088       S  0.95735607  0.28024604  0.71740387    -0.24800
H1089       H  0.96966057  0.20937605  0.70456862     0.20100
S1090       S  0.05389240  0.19909244  0.58092286    -0.30500
H1091       H  0.03844775  0.26935581  0.59032550     0.10400
C1092       C  0.03285823  0.33349171  0.64382379     0.03600
C1093       C  0.03101725  0.36897251  0.63695817    -0.12800
C1094       C  0.99995715  0.38488539  0.62612000    -0.08500
C1095       C  0.97020083  0.36464420  0.62119620     0.07100
C1096       C  0.97199358  0.32927434  0.62822400    -0.13600
S1097       S  0.07326594  0.31432190  0.65907149    -0.30500
H1098       H  0.05369652  0.38460304  0.64095612     0.11300
S1099       S  0.92940062  0.38221427  0.60499238    -0.27600
H1100       H  0.94914519  0.31387147  0.62404062     0.08600
H1101       H  0.06496896  0.17511134  0.61266774     0.27000
H1102       H  0.09278429  0.34458246  0.65861207     0.21800
H1103       H  0.94276808  0.40896331  0.57902395     0.27100
H1104       H  0.97699035  0.31035691  0.71974786     0.15900
C1105       C  0.84577172  0.12234085  0.80863055    -0.11300
C1106       C  0.82903984  0.10737180  0.84503025     0.15200
C1107       C  0.84870659  0.09144365  0.87852021     0.02100
C1108       C  0.88428615  0.09035801  0.87461350    -0.15700
C1109       C  0.90123837  0.10587008  0.83875840    -0.10500
C1110       C  0.88157167  0.12260260  0.80573966     0.08800
C1111       C  0.79114172  0.10851964  0.84743468     0.09900
S1112       S  0.83009293  0.07265658  0.92763332    -0.24800
H1113       H  0.89892269  0.07760211  0.90031975     0.20100
S1114       S  0.90038194  0.14671451  0.76096283    -0.30500
H1115       H  0.83082698  0.13478511  0.78295151     0.10400
C1116       C  0.77338869  0.13954781  0.85385670     0.03600
C1117       C  0.73762591  0.13911286  0.85821266    -0.12800
C1118       C  0.71917881  0.10818941  0.85761941    -0.08500
C1119       C  0.73737201  0.07704517  0.85241076     0.07100
C1120       C  0.77280966  0.07769620  0.84613846    -0.13600
S1121       S  0.79634333  0.17956243  0.85842868    -0.30500
H1122       H  0.72391775  0.16299256  0.86208960     0.11300
S1123       S  0.71755543  0.03543656  0.85643052    -0.27600
H1124       H  0.78648781  0.05378012  0.84203135     0.08600
H1125       H  0.92606008  0.16167518  0.78744176     0.27000
H1126       H  0.76782883  0.20029862  0.86769272     0.21800
H1127       H  0.69311166  0.04520021  0.88824470     0.27100
H1128       H  0.80312136  0.09625769  0.93156218     0.15900
C1129       C  0.03829003  0.33431476  0.84762887    -0.11300
C1130       C  0.00734551  0.31605230  0.84639112     0.15200
C1131       C  0.97617039  0.33434630  0.84837530     0.02100
C1132       C  0.97669187  0.36994514  0.85309962    -0.15700
C1133       C  0.00759309  0.38827662  0.85414217    -0.10500
C1134       C  0.03874778  0.37013248  0.85011549     0.08800
C1135       C  0.00817484  0.27801595  0.84523518     0.09900
S1136       S  0.93477855  0.31401573  0.84469108    -0.24800
H1137       H  0.95262506  0.38355278  0.85574980     0.20100
S1138       S  0.07975463  0.39105006  0.84600240    -0.30500
H1139       H  0.06232063  0.32054813  0.84606618     0.10400
C1140       C  0.02261680  0.25971943  0.80941649     0.03600
C1141       C  0.02097720  0.22380202  0.80907601    -0.12800
C1142       C  0.00542564  0.20562294  0.84393804    -0.08500
C1143       C  0.99092979  0.22416769  0.87968026     0.07100
C1144       C  0.99313621  0.25988045  0.88033005    -0.13600
S1145       S  0.04279919  0.28190281  0.76383341    -0.30500
H1146       H  0.03218417  0.20977143  0.78170132     0.11300
S1147       S  0.96735363  0.20422697  0.92410933    -0.27600
H1148       H  0.98200073  0.27382430  0.90789037     0.08600
H1149       H  0.06761245  0.41995815  0.82305309     0.27000
H1150       H  0.04977584  0.25287605  0.73768523     0.21800
H1151       H  0.94966237  0.18142387  0.89603946     0.27100
H1152       H  0.94524101  0.28643310  0.81799915     0.15900
C1153       C  0.16173191  0.08535561  0.87393586    -0.11300
C1154       C  0.17889338  0.10832761  0.84592941     0.15200
C1155       C  0.15994585  0.12741551  0.81456783     0.02100
C1156       C  0.12443211  0.12343472  0.81233532    -0.15700
C1157       C  0.10710187  0.10130447  0.84134072    -0.10500
C1158       C  0.12618539  0.08164760  0.87206955     0.08800
C1159       C  0.21658718  0.11114605  0.84949236     0.09900
S1160       S  0.17932577  0.15805009  0.77749229    -0.24800
H1161       H  0.11005427  0.13868684  0.78873292     0.20100
S1162       S  0.10706989  0.05071958  0.90893287    -0.30500
H1163       H  0.17623540  0.07005142  0.89732508     0.10400
C1164       C  0.23241371  0.12338235  0.88855779     0.03600
C1165       C  0.26814179  0.12560164  0.89044843    -0.12800
C1166       C  0.28841237  0.11602027  0.85409080    -0.08500
C1167       C  0.27261632  0.10358246  0.81506937     0.07100
C1168       C  0.23683995  0.10118801  0.81326193    -0.13600
S1169       S  0.20720930  0.13722549  0.93556257    -0.30500
H1170       H  0.28047528  0.13511611  0.92023354     0.11300
S1171       S  0.29783778  0.08934258  0.76829361    -0.27600
H1172       H  0.22444972  0.09139480  0.78366368     0.08600
H1173       H  0.08125100  0.04066281  0.87920452     0.27000
H1174       H  0.23474739  0.14438447  0.96423747     0.21800
H1175       H  0.27025742  0.07970764  0.74096878     0.27100
H1176       H  0.20548762  0.16826472  0.80673925     0.15900
C1177       C  0.96854512  0.94650576  0.83568462    -0.11300
C1178       C  0.99879811  0.92781843  0.84198390     0.15200
C1179       C  0.03045965  0.94532100  0.84288148     0.02100
C1180       C  0.03099990  0.98105954  0.83945117    -0.15700
C1181       C  0.00068467  0.99976925  0.83438953    -0.10500
C1182       C  0.96916969  0.98223437  0.83169330     0.08800
C1183       C  0.99645466  0.89029575  0.84865344     0.09900
S1184       S  0.07096150  0.92364926  0.84881216    -0.24800
H1185       H  0.05526841  0.99436819  0.84099606     0.20100
S1186       S  0.92884355  0.00412249  0.82548653    -0.30500
H1187       H  0.94422154  0.93318933  0.83468133     0.10400
C1188       C  0.00217406  0.87530627  0.89061289     0.03600
C1189       C  0.00154832  0.83951027  0.89484304    -0.12800
C1190       C  0.99479662  0.81834392  0.85808498    -0.08500
C1191       C  0.98714179  0.83369001  0.81659624     0.07100
C1192       C  0.98838705  0.86935304  0.81230680    -0.13600
S1193       S  0.00997259  0.90179801  0.93881192    -0.30500
H1194       H  0.00704028  0.82787592  0.92669705     0.11300
S1195       S  0.97477214  0.80943888  0.76811686    -0.27600
H1196       H  0.98302206  0.88091034  0.78032313     0.08600
H1197       H  0.94141312  0.03095687  0.79912406     0.27000
H1198       H  0.01231742  0.87501267  0.96987790     0.21800
H1199       H  0.95850021  0.78294480  0.79162595     0.27100
H1200       H  0.06089003  0.89284787  0.82846746     0.15900
C1201       C  0.66073138  0.63216389  0.89871906    -0.11300
C1202       C  0.67687462  0.61537344  0.86332096     0.15200
C1203       C  0.65666778  0.60059057  0.82943056     0.02100
C1204       C  0.62098670  0.60340917  0.83130299    -0.15700
C1205       C  0.60466153  0.61987108  0.86699375    -0.10500
C1206       C  0.62504805  0.63495634  0.90068724     0.08800
C1207       C  0.71477366  0.61383796  0.86281540     0.09900
S1208       S  0.67471645  0.57703796  0.78356652    -0.24800
H1209       H  0.60580032  0.59149996  0.80539617     0.20100
S1210       S  0.60740487  0.65937357  0.94601946    -0.30500
H1211       H  0.67614634  0.64376098  0.92464272     0.10400
C1212       C  0.73432533  0.63272848  0.83198589     0.03600
C1213       C  0.77014957  0.63015119  0.83281581    -0.12800
C1214       C  0.78673273  0.60923750  0.86396759    -0.08500
C1215       C  0.76713194  0.59042708  0.89482346     0.07100
C1216       C  0.73144305  0.59317095  0.89417604    -0.13600
S1217       S  0.71374939  0.66094775  0.79265726    -0.30500
H1218       H  0.78541728  0.64484077  0.80968422     0.11300
S1219       S  0.78617401  0.56264743  0.93584075    -0.27600
H1220       H  0.71645111  0.57868065  0.91788301     0.08600
H1221       H  0.58204808  0.67536952  0.92010043     0.27000
H1222       H  0.74378287  0.67311239  0.77240160     0.21800
H1223       H  0.81482450  0.55319023  0.91053634     0.27100
H1224       H  0.70389196  0.56518836  0.80609641     0.15900
C1225       C  0.51599121  0.45761388  0.83273089    -0.11300
C1226       C  0.50758169  0.44012358  0.87185809     0.15200
C1227       C  0.49904713  0.45896589  0.91027101     0.02100
C1228       C  0.49817537  0.49472941  0.90830533    -0.15700
C1229       C  0.50663055  0.51252469  0.86916417    -0.10500
C1230       C  0.51614727  0.49342276  0.83105089     0.08800
C1231       C  0.50840972  0.40226422  0.87140212     0.09900
S1232       S  0.48910344  0.43907344  0.96280804    -0.24800
H1233       H  0.49091376  0.50876421  0.93788669     0.20100
S1234       S  0.53019773  0.51273203  0.77985997    -0.30500
H1235       H  0.52301391  0.44316885  0.80337072     0.10400
C1236       C  0.47816992  0.38264890  0.87193230     0.03600
C1237       C  0.48036860  0.34683304  0.87079209    -0.12800
C1238       C  0.51216974  0.33016334  0.86820599    -0.08500
C1239       C  0.54240091  0.35006519  0.86661838     0.07100
C1240       C  0.54017259  0.38577318  0.86879862    -0.13600
S1241       S  0.43679799  0.40320850  0.87276260    -0.30500
H1242       H  0.45720846  0.33164365  0.87186442     0.11300
S1243       S  0.58440238  0.33177429  0.85973045    -0.27600
H1244       H  0.56338355  0.40093803  0.86763770     0.08600
H1245       H  0.55227305  0.53616377  0.80094602     0.27000
H1246       H  0.41704864  0.37310454  0.87144347     0.21800
H1247       H  0.57374575  0.30446059  0.83256540     0.27100
H1248       H  0.50951505  0.40982146  0.95694578     0.15900
C1249       C  0.27075639  0.61865200  0.91639601    -0.11300
C1250       C  0.28884784  0.60763209  0.87877802     0.15200
C1251       C  0.27054653  0.59524916  0.84155940     0.02100
C1252       C  0.23477821  0.59554281  0.84206461    -0.15700
C1253       C  0.21660632  0.60680332  0.87948658    -0.10500
C1254       C  0.23491138  0.61850885  0.91713799     0.08800
C1255       C  0.32669737  0.60993988  0.87895028     0.09900
S1256       S  0.29120937  0.57824796  0.79268256    -0.24800
H1257       H  0.22093167  0.58610471  0.81334771     0.20100
S1258       S  0.21424138  0.63448109  0.96655385    -0.30500
H1259       H  0.28466517  0.62816836  0.94497121     0.10400
C1260       C  0.34423611  0.63300791  0.85104535     0.03600
C1261       C  0.38010505  0.63276577  0.85024958    -0.12800
C1262       C  0.39888068  0.61043482  0.87746388    -0.08500
C1263       C  0.38120838  0.58771144  0.90591668     0.07100
C1264       C  0.34538742  0.58794833  0.90664871    -0.13600
S1265       S  0.32100824  0.66352415  0.81750459    -0.30500
H1266       H  0.39365856  0.65050712  0.82900260     0.11300
S1267       S  0.40270717  0.55660648  0.94025868    -0.27600
H1268       H  0.33194208  0.57014771  0.92795863     0.08600
H1269       H  0.18521749  0.64767389  0.94492270     0.27000
H1270       H  0.34957770  0.67769479  0.79589452     0.21800
H1271       H  0.42841747  0.54902950  0.90910990     0.27100
H1272       H  0.32064208  0.56611078  0.81440148     0.15900
C1273       C  0.52366212  0.84659652  0.87924057    -0.11300
C1274       C  0.49245907  0.82941461  0.87373268     0.15200
C1275       C  0.46204391  0.84855971  0.86892101     0.02100
C1276       C  0.46368706  0.88436836  0.86858552    -0.15700
C1277       C  0.49495917  0.90163473  0.87380610    -0.10500
C1278       C  0.52522936  0.88237064  0.87983593     0.08800
C1279       C  0.49272747  0.79154708  0.87366146     0.09900
S1280       S  0.42047959  0.82899878  0.86271483    -0.24800
H1281       H  0.44035400  0.89893878  0.86409860     0.20100
S1282       S  0.56644691  0.90173026  0.88971597    -0.30500
H1283       H  0.54697205  0.83194444  0.88354029     0.10400
C1284       C  0.48997254  0.77260126  0.83406561     0.03600
C1285       C  0.49147216  0.73672126  0.83572142    -0.12800
C1286       C  0.49557008  0.71912190  0.87629105    -0.08500
C1287       C  0.49780166  0.73863859  0.91607557     0.07100
C1288       C  0.49680854  0.77440248  0.91409541    -0.13600
S1289       S  0.48532445  0.79419637  0.78135124    -0.30500
H1290       H  0.48959385  0.72237680  0.80505652     0.11300
S1291       S  0.50235295  0.72012593  0.97053445    -0.27600
H1292       H  0.49890189  0.78911215  0.94451988     0.08600
H1293       H  0.55390646  0.93015196  0.91330073     0.27000
H1294       H  0.48509371  0.76469050  0.75452318     0.21800
H1295       H  0.47160619  0.70152047  0.96710427     0.27100
H1296       H  0.42784066  0.79872475  0.88599107     0.15900
C1297       C  0.34023531  0.61147626  0.66426581    -0.11300
C1298       C  0.32401974  0.60843002  0.62294475     0.15200
C1299       C  0.34381754  0.60875871  0.58387215     0.02100
C1300       C  0.37939064  0.61149098  0.58702963    -0.15700
C1301       C  0.39612107  0.61395795  0.62841669    -0.10500
C1302       C  0.37582076  0.61475870  0.66753148     0.08800
C1303       C  0.28634343  0.60592876  0.62172876     0.09900
S1304       S  0.32544553  0.60606962  0.52890440    -0.24800
H1305       H  0.39409444  0.61129097  0.55655625     0.20100
S1306       S  0.39305318  0.62046268  0.72257314    -0.30500
H1307       H  0.32490743  0.61183322  0.69425219     0.10400
C1308       C  0.26957617  0.57438896  0.62809742     0.03600
C1309       C  0.23372859  0.57312049  0.62674786    -0.12800
C1310       C  0.21438970  0.60284305  0.61930338    -0.08500
C1311       C  0.23142065  0.63431371  0.61204734     0.07100
C1312       C  0.26714828  0.63555235  0.61376746    -0.13600
S1313       S  0.29395299  0.53581628  0.63755260    -0.30500
H1314       H  0.22061858  0.54906445  0.63224776     0.11300
S1315       S  0.20913982  0.67356331  0.59948864    -0.27600
H1316       H  0.28015475  0.65971453  0.60841589     0.08600
H1317       H  0.41069554  0.65064600  0.71123533     0.27000
H1318       H  0.26584277  0.51350599  0.64123579     0.21800
H1319       H  0.18193248  0.65801738  0.57644060     0.27100
H1320       H  0.29574123  0.58794030  0.54045188     0.15900
C1321       C  0.48241280  0.84694579  0.66052992    -0.11300
C1322       C  0.49386150  0.82898048  0.62302537     0.15200
C1323       C  0.50230579  0.84737815  0.58410741     0.02100
C1324       C  0.49946401  0.88313020  0.58379924    -0.15700
C1325       C  0.48893252  0.90115189  0.62175582    -0.10500
C1326       C  0.47974690  0.88265501  0.66032266     0.08800
C1327       C  0.49498054  0.79103965  0.62495311     0.09900
S1328       S  0.51771452  0.82693829  0.53422154    -0.24800
H1329       H  0.50669659  0.89711907  0.55417694     0.20100
S1330       S  0.46371086  0.90293050  0.70999265    -0.30500
H1331       H  0.47507629  0.83293574  0.69007285     0.10400
C1332       C  0.51744169  0.77358625  0.65386551     0.03600
C1333       C  0.51708088  0.73763807  0.65505170    -0.12800
C1334       C  0.49490686  0.71877047  0.62766483    -0.08500
C1335       C  0.47183362  0.73641717  0.59961750     0.07100
C1336       C  0.47235055  0.77220182  0.59828929    -0.13600
S1337       S  0.54779398  0.79695723  0.68755604    -0.30500
H1338       H  0.53483215  0.72411892  0.67638233     0.11300
S1339       S  0.43997489  0.71490226  0.56637663    -0.27600
H1340       H  0.45454828  0.78556025  0.57680406     0.08600
H1341       H  0.44800033  0.93061840  0.68820885     0.27000
H1342       H  0.55999499  0.76869445  0.71177978     0.21800
H1343       H  0.43304791  0.68924637  0.59787970     0.27100
H1344       H  0.53388332  0.79931128  0.55552933     0.15900
C1345       C  0.65749260  0.63391510  0.59729464    -0.11300
C1346       C  0.67379039  0.60686424  0.61953146     0.15200
C1347       C  0.65392744  0.58360447  0.64449210     0.02100
C1348       C  0.61855634  0.58845340  0.64775899    -0.15700
C1349       C  0.60222738  0.61524683  0.62510092    -0.10500
C1350       C  0.62200207  0.63829311  0.59969918     0.08800
C1351       C  0.71165861  0.60500170  0.61860686     0.09900
S1352       S  0.67197223  0.54649761  0.67133599    -0.24800
H1353       H  0.60345034  0.57031525  0.66665849     0.20100
S1354       S  0.60366591  0.67448632  0.57113305    -0.30500
H1355       H  0.67265010  0.65210749  0.57856584     0.10400
C1356       C  0.72971321  0.59810891  0.57910683     0.03600
C1357       C  0.76563724  0.59761261  0.57979292    -0.12800
C1358       C  0.78394509  0.60412869  0.61915621    -0.08500
C1359       C  0.76560407  0.61147917  0.65855710     0.07100
C1360       C  0.72983006  0.61139103  0.65792148    -0.13600
S1361       S  0.70699933  0.58873745  0.52823284    -0.30500
H1362       H  0.77958240  0.59167601  0.54970337     0.11300
S1363       S  0.78610568  0.62270813  0.71026233    -0.27600
H1364       H  0.71595969  0.61720113  0.68816913     0.08600
H1365       H  0.57758376  0.68053141  0.60230822     0.27000
H1366       H  0.73574432  0.58943604  0.50035307     0.21800
H1367       H  0.81358450  0.64041184  0.69077617     0.27100
H1368       H  0.69911332  0.54191065  0.64133729     0.15900
C1369       C  0.50132799  0.38647107  0.58178915    -0.11300
C1370       C  0.51182035  0.40289226  0.62104901     0.15200
C1371       C  0.52184707  0.38277336  0.65783084     0.02100
C1372       C  0.52056365  0.34703049  0.65475524    -0.15700
C1373       C  0.51016177  0.33060816  0.61545467    -0.10500
C1374       C  0.50041029  0.35072415  0.57852008     0.08800
C1375       C  0.51005096  0.44086226  0.62323129     0.09900
S1376       S  0.53690611  0.40100112  0.70938766    -0.24800
H1377       H  0.52822791  0.33180557  0.68315659     0.20100
S1378       S  0.48528123  0.33260963  0.52694367    -0.30500
H1379       H  0.49299336  0.40169828  0.55374423     0.10400
C1380       C  0.52938036  0.46167972  0.59433776     0.03600
C1381       C  0.52545286  0.49735263  0.59593644    -0.12800
C1382       C  0.50300921  0.51284853  0.62627378    -0.08500
C1383       C  0.48377962  0.49194285  0.65534459     0.07100
C1384       C  0.48755018  0.45631225  0.65353386    -0.13600
S1385       S  0.56017212  0.44301411  0.55671905    -0.30500
H1386       H  0.54052787  0.51338122  0.57409479     0.11300
S1387       S  0.45288737  0.50891042  0.69394630    -0.27600
H1388       H  0.47228492  0.44040020  0.67534022     0.08600
H1389       H  0.46937380  0.30389768  0.54605690     0.27000
H1390       H  0.57018377  0.47366714  0.53595478     0.21800
H1391       H  0.44091442  0.53475823  0.66535533     0.27100
H1392       H  0.55126015  0.43063384  0.69055446     0.15900
loop_ 
_geom_bond_atom_site_label_1 
_geom_bond_atom_site_label_2 
_geom_bond_distance 
_geom_bond_site_symmetry_2 
_ccdc_geom_bond_type 
C1            C2   1.406       .  A
C1            C6   1.404       .  A
C1          C677   1.483       .  S
C2            C3   1.406       .  A
C2            H7   1.084       .  S
C3            C4   1.405       .  A
C3          C228   1.477       .  S
C4            C5   1.404       .  A
C4            H8   1.084       .  S
C5            C6   1.402       .  A
C5          C281   1.477       .  S
C6            H9   1.084       .  S
O10          V18   1.899       .  S
O10          C20   1.265       .  A
O11          V18   1.896       .  S
O11          C21   1.263       .  A
O12          V18   1.898       .  S
O12          C22   1.264       .  A
O13          V18   1.897       .  S
O13          C23   1.266       .  A
O14          V19   1.901       .  S
O14          C23   1.264       .  A
O15          V19   1.901       .  S
O15          C22   1.264       .  A
O16          V19   1.906       .  S
O16          C21   1.266       .  A
O17          V19   1.902       .  S
O17          C20   1.265       .  A
V18          V19   2.085       .  T
C20         C686   1.479       .  S
C21         C638   1.478       .  S
C22         C653   1.473       .  S
C23         C605   1.492       .  S
C24          C25   1.407       .  A
C24          C29   1.407       .  A
C24         C662   1.486       .  S
C25          C26   1.404       .  A
C25          H30   1.084       .  S
C26          C27   1.402       .  A
C26         C241   1.475       .  S
C27          C28   1.402       .  A
C27          H31   1.084       .  S
C28          C29   1.404       .  A
C28         C298   1.475       .  S
C29          H32   1.084       .  S
C33          C34   1.404       .  A
C33          C38   1.406       .  A
C33         C629   1.482       .  S
C34          C35   1.401       .  A
C34          H39   1.084       .  S
C35          C36   1.402   1_565  A
C35         C309   1.473   1_565  S
C36          C37   1.404   1_545  A
C36          H40   1.084       .  S
C37          C38   1.406       .  A
C37         C254   1.475   1_565  S
C38          H41   1.084       .  S
C42          C43   1.402       .  A
C42          C47   1.404       .  A
C42         C614   1.479       .  S
C43          C44   1.402       .  A
C43          H48   1.084       .  S
C44          C45   1.404       .  A
C44         C267   1.474       .  S
C45          C46   1.405       .  A
C45          H49   1.084       .  S
C46          C47   1.404       .  A
C46         C211   1.475       .  S
C47          H50   1.084       .  S
C51          C52   1.404       .  A
C51          C56   1.404       .  A
C51         C581   1.482       .  S
C52          C53   1.403       .  A
C52          H57   1.084       .  S
C53          C54   1.404   1_565  A
C53         C256   1.474   1_565  S
C54          C55   1.404   1_545  A
C54          H58   1.084       .  S
C55          C56   1.404       .  A
C55         C311   1.475   1_565  S
C56          H59   1.084       .  S
O60          V68   1.899       .  S
O60          C70   1.264       .  A
O61          V68   1.903       .  S
O61          C71   1.266       .  A
O62          V68   1.902       .  S
O62          C72   1.265       .  A
O63          V68   1.901       .  S
O63          C73   1.266       .  A
O64          V69   1.899       .  S
O64          C73   1.263       .  A
O65          V69   1.897       .  S
O65          C72   1.265       .  A
O66          V69   1.900       .  S
O66          C71   1.264       .  A
O67          V69   1.901       .  S
O67          C70   1.264       .  A
V68          V69   2.084       .  T
C70         C566   1.477       .  S
C71         C509   1.485       .  S
C72         C533   1.486       .  S
C73         C590   1.493       .  S
C74          C75   1.406       .  A
C74          C79   1.405       .  A
C74         C557   1.481       .  S
C75          C76   1.404       .  A
C75          H80   1.084       .  S
C76          C77   1.402       .  A
C76         C270   1.477       .  S
C77          C78   1.403       .  A
C77          H81   1.084       .  S
C78          C79   1.403       .  A
C78         C213   1.472       .  S
C79          H82   1.084       .  S
C83          C84   1.406       .  A
C83          C88   1.404       .  A
C83         C542   1.484       .  S
C84          C85   1.405       .  A
C84          H89   1.084       .  S
C85          C86   1.404       .  A
C85         C225   1.475       .  S
C86          C87   1.404       .  A
C86          H90   1.084       .  S
C87          C88   1.402       .  A
C87         C283   1.474       .  S
C88          H91   1.084       .  S
C92          C93   1.402       .  A
C92          C97   1.402       .  A
C92         C518   1.476       .  S
C93          C94   1.404       .  A
C93          H98   1.084       .  S
C94          C95   1.406       .  A
C94         C296   1.475       .  S
C95          C96   1.406       .  A
C95          H99   1.084       .  S
C96          C97   1.404       .  A
C96         C239   1.478       .  S
C97         H100   1.084       .  S
C101        C102   1.406   1_655  A
C101        C106   1.408       .  A
C101        C494   1.487       .  S
C102        C103   1.402       .  A
C102        H107   1.084       .  S
C103        C104   1.400       .  A
C103        C268   1.473       .  S
C104        C105   1.404   1_455  A
C104        H108   1.084       .  S
C105        C106   1.406       .  A
C105        C242   1.478       .  S
C106        H109   1.084       .  S
O110        V118   1.893   1_655  S
O110        C120   1.264       .  A
O111        V118   1.895       .  S
O111        C121   1.263       .  A
O112        V118   1.899       .  S
O112        C122   1.264       .  A
O113        V118   1.899       .  S
O113        C123   1.263       .  A
O114        V119   1.904       .  S
O114        C123   1.264       .  A
O115        V119   1.901       .  S
O115        C122   1.265       .  A
O116        V119   1.902       .  S
O116        C121   1.265       .  A
O117        V119   1.905   1_655  S
O117        C120   1.265       .  A
V118        V119   2.087       .  T
C120        C413   1.482       .  S
C121        C461   1.477       .  S
C122        C446   1.483       .  S
C123        C485   1.471   1_545  S
C124        C125   1.404       .  A
C124        C129   1.402       .  A
C124        C470   1.479       .  S
C125        C126   1.404       .  A
C125        H130   1.084       .  S
C126        C127   1.403       .  A
C126        C282   1.472       .  S
C127        C128   1.405       .  A
C127        H131   1.084       .  S
C128        C129   1.401       .  A
C128        C253   1.474       .  S
C129        H132   1.084       .  S
C133        C134   1.407       .  A
C133        C138   1.403   1_455  A
C133        C437   1.486       .  S
C134        C135   1.406       .  A
C134        H139   1.084       .  S
C135        C136   1.406       .  A
C135        C212   1.478       .  S
C136        C137   1.403   1_455  A
C136        H140   1.084       .  S
C137        C138   1.401       .  A
C137        C297   1.473       .  S
C138        H141   1.084       .  S
C142        C143   1.406       .  A
C142        C147   1.411       .  A
C142        C422   1.490       .  S
C143        C144   1.401       .  A
C143        H148   1.084       .  S
C144        C145   1.399       .  A
C144        C310   1.471       .  S
C145        C146   1.403       .  A
C145        H149   1.084       .  S
C146        C147   1.407       .  A
C146        C227   1.478       .  S
C147        H150   1.084       .  S
C151        C152   1.404       .  A
C151        C156   1.407   1_655  A
C151        C398   1.481       .  S
C152        C153   1.402       .  A
C152        H157   1.084       .  S
C153        C154   1.401       .  A
C153        C295   1.474       .  S
C154        C155   1.404   1_655  A
C154        H158   1.084       .  S
C155        C156   1.405       .  A
C155        C214   1.476       .  S
C156        H159   1.084       .  S
O160        V168   1.895       .  S
O160        C170   1.264       .  A
O161        V168   1.895   1_655  S
O161        C171   1.263       .  A
O162        V168   1.894       .  S
O162        C172   1.263       .  A
O163        V168   1.896   1_655  S
O163        C173   1.264       .  A
O164        V169   1.905       .  S
O164        C173   1.266   1_455  A
O165        V169   1.906       .  S
O165        C172   1.266       .  A
O166        V169   1.905   1_655  S
O166        C171   1.265       .  A
O167        V169   1.906       .  S
O167        C170   1.266       .  A
V168        V169   2.086       .  T
C170        C317   1.483       .  S
C171        C365   1.477       .  S
C172        C389   1.480       .  S
C173        C350   1.481   1_545  S
C174        C175   1.407       .  A
C174        C179   1.402       .  A
C174        C374   1.482       .  S
C175        C176   1.406       .  A
C175        H180   1.084       .  S
C176        C177   1.405       .  A
C176        C226   1.478       .  S
C177        C178   1.401       .  A
C177        H181   1.084       .  S
C178        C179   1.401       .  A
C178        C312   1.470       .  S
C179        H182   1.084       .  S
C183        C184   1.407       .  A
C183        C188   1.400   1_655  A
C183        C341   1.480       .  S
C184        C185   1.408       .  A
C184        H189   1.084       .  S
C185        C186   1.407       .  A
C185        C240   1.480       .  S
C186        C187   1.403   1_655  A
C186        H190   1.084   1_655  S
C187        C188   1.400       .  A
C187        C269   1.472       .  S
C188        H191   1.085       .  S
C192        C193   1.411       .  A
C192        C197   1.406       .  A
C192        C326   1.489       .  S
C193        C194   1.407       .  A
C193        H198   1.083       .  S
C194        C195   1.402       .  A
C194        C255   1.479       .  S
C195        C196   1.399       .  A
C195        H199   1.084       .  S
C196        C197   1.401       .  A
C196        C284   1.469       .  S
C197        H200   1.084       .  S
O201        V905   1.904   1_554  S
O201        C211   1.265       .  A
O202        V209   1.905       .  S
O202        C212   1.266       .  A
O203        V209   1.906       .  S
O203        C213   1.265       .  A
O204        V905   1.908   1_554  S
O204        C214   1.266       .  A
O205        V906   1.893   1_554  S
O205        C214   1.264       .  A
O206        V210   1.894       .  S
O206        C213   1.263       .  A
O207        V210   1.899       .  S
O207        C212   1.264       .  A
O208        V906   1.899   1_554  S
O208        C211   1.264       .  A
V209        O897   1.904       .  S
V209        O900   1.908       .  S
V209        V210   2.088       .  T
V210        O901   1.893       .  S
V210        O904   1.899       .  S
O215        V223   1.904       .  S
O215        C225   1.265       .  A
O216        V919   1.905   1_554  S
O216        C226   1.265       .  A
O217        V223   1.909       .  S
O217        C227   1.266       .  A
O218        V919   1.907   1_554  S
O218        C228   1.266       .  A
O219        V920   1.897   1_554  S
O219        C228   1.264       .  A
O220        V224   1.895       .  S
O220        C227   1.264       .  A
O221        V920   1.897   1_554  S
O221        C226   1.264       .  A
O222        V224   1.898       .  S
O222        C225   1.264       .  A
V223        O912   1.905       .  S
V223        O914   1.907       .  S
V223        V224   2.088       .  T
V224        O915   1.897       .  S
V224        O917   1.897       .  S
O229        V237   1.901       .  S
O229        C239   1.264       .  A
O230        V933   1.900   1_554  S
O230        C240   1.265       .  A
O231        V933   1.896   1_554  S
O231        C241   1.264       .  A
O232        V237   1.896       .  S
O232        C242   1.264       .  A
O233        V238   1.906       .  S
O233        C242   1.265       .  A
O234        V934   1.905   1_554  S
O234        C241   1.265       .  A
O235        V934   1.908   1_554  S
O235        C240   1.266       .  A
O236        V238   1.904       .  S
O236        C239   1.266       .  A
V237        O926   1.900       .  S
V237        O927   1.896       .  S
V237        V238   2.087       .  T
V238        O930   1.905       .  S
V238        O931   1.908       .  S
O243        V251   1.901       .  S
O243        C253   1.265       .  A
O244        V947   1.903   1_554  S
O244        C254   1.265       .  A
O245        V947   1.907   1_554  S
O245        C255   1.265       .  A
O246        V251   1.902       .  S
O246        C256   1.265       .  A
O247        V252   1.898       .  S
O247        C256   1.264       .  A
O248        V948   1.897   1_554  S
O248        C255   1.265       .  A
O249        V948   1.897   1_554  S
O249        C254   1.264       .  A
O250        V252   1.896       .  S
O250        C253   1.263       .  A
V251        O940   1.903       .  S
V251        O941   1.907       .  S
V251        V252   2.088       .  T
V252        O944   1.897       .  S
V252        O945   1.897       .  S
O257        V265   1.900       .  S
O257        C267   1.264       .  A
O258        V265   1.899       .  S
O258        C268   1.265       .  A
O259        V265   1.901       .  S
O259        C269   1.264       .  A
O260        V265   1.899       .  S
O260        C270   1.265       .  A
O261        V266   1.902       .  S
O261        C270   1.264       .  A
O262        V266   1.898       .  S
O262        C269   1.264       .  A
O263        V266   1.901       .  S
O263        C268   1.264       .  A
O264        V266   1.900       .  S
O264        C267   1.265       .  A
V265        V266   2.088       .  T
O271        V279   1.902       .  S
O271        C281   1.265       .  A
O272        V279   1.901       .  S
O272        C282   1.264       .  A
O273        V279   1.902       .  S
O273        C283   1.265       .  A
O274        V279   1.901       .  S
O274        C284   1.264       .  A
O275        V280   1.894       .  S
O275        C284   1.263       .  A
O276        V280   1.897       .  S
O276        C283   1.263       .  A
O277        V280   1.899       .  S
O277        C282   1.264       .  A
O278        V280   1.901       .  S
O278        C281   1.265       .  A
V279        V280   2.088       .  T
O285        V293   1.898       .  S
O285        C295   1.264       .  A
O286        V293   1.900       .  S
O286        C296   1.264       .  A
O287        V293   1.900       .  S
O287        C297   1.264       .  A
O288        V293   1.897       .  S
O288        C298   1.265       .  A
O289        V294   1.903       .  S
O289        C298   1.265       .  A
O290        V294   1.901       .  S
O290        C297   1.265       .  A
O291        V294   1.902       .  S
O291        C296   1.265       .  A
O292        V294   1.902       .  S
O292        C295   1.264       .  A
V293        V294   2.088       .  T
O299        V307   1.900   1_565  S
O299        C309   1.264   1_565  A
O300        V307   1.899       .  S
O300        C310   1.264       .  A
O301        V307   1.901   1_565  S
O301        C311   1.265   1_565  A
O302        V307   1.898       .  S
O302        C312   1.264       .  A
O303        V308   1.898       .  S
O303        C312   1.264       .  A
O304        V308   1.900       .  S
O304        C311   1.265       .  A
O305        V308   1.897       .  S
O305        C310   1.264       .  A
O306        V308   1.898       .  S
O306        C309   1.264       .  A
V307        V308   2.089       .  T
C313        C314   1.405       .  A
C313        C318   1.403       .  A
C313        H323   1.084       .  S
C314        C315   1.413       .  A
C314        C319   1.484       .  S
C315        C316   1.398       .  A
C315        S320   1.806       .  S
C316        C317   1.406       .  A
C316        H321   1.084       .  S
C317        C318   1.415       .  A
C318        S322   1.802       .  S
C319        C324   1.410       .  A
C319        C328   1.402       .  A
S320        H336   1.406       .  S
S322        H333   1.407       .  S
C324        C325   1.404       .  A
C324        S329   1.807       .  S
C325        C326   1.407       .  A
C325        H330   1.082       .  S
C326        C327   1.416       .  A
C327        C328   1.400       .  A
C327        S331   1.803       .  S
C328        H332   1.084       .  S
S329        H334   1.407       .  S
S331        H335   1.407       .  S
C337        C338   1.402   1_455  A
C337        C342   1.399       .  A
C337        H347   1.084       .  S
C338        C339   1.413       .  A
C338        C343   1.483       .  S
C339        C340   1.401       .  A
C339        S344   1.803       .  S
C340        C341   1.403       .  A
C340        H345   1.084       .  S
C341        C342   1.414   1_655  A
C342        S346   1.804       .  S
C343        C348   1.410   1_655  A
C343        C352   1.400       .  A
S344        H360   1.407       .  S
S346        H357   1.406       .  S
C348        C349   1.406       .  A
C348        S353   1.805       .  S
C349        C350   1.406   1_455  A
C349        H354   1.083       .  S
C350        C351   1.416       .  A
C351        C352   1.397       .  A
C351        S355   1.803       .  S
C352        H356   1.084       .  S
S353        H358   1.406       .  S
S355        H359   1.407   1_565  S
C361        C362   1.404       .  A
C361        C366   1.402       .  A
C361        H371   1.084       .  S
C362        C363   1.413       .  A
C362        C367   1.484       .  S
C363        C364   1.397       .  A
C363        S368   1.805       .  S
C364        C365   1.403       .  A
C364        H369   1.084       .  S
C365        C366   1.414       .  A
C366        S370   1.803       .  S
C367        C372   1.412       .  A
C367        C376   1.403       .  A
S368        H384   1.406       .  S
S370        H381   1.406       .  S
C372        C373   1.402       .  A
C372        S377   1.808       .  S
C373        C374   1.403       .  A
C373        H378   1.083       .  S
C374        C375   1.416       .  A
C375        C376   1.400       .  A
C375        S379   1.805       .  S
C376        H380   1.084       .  S
S377        H382   1.407       .  S
S379        H383   1.406       .  S
C385        C386   1.402       .  A
C385        C390   1.397       .  A
C385        H395   1.084       .  S
C386        C387   1.416   1_455  A
C386        C391   1.486       .  S
C387        C388   1.402       .  A
C387        S392   1.805       .  S
C388        C389   1.404   1_655  A
C388        H393   1.084       .  S
C389        C390   1.415       .  A
C390        S394   1.803       .  S
C391        C396   1.414       .  A
C391        C400   1.403   1_455  A
S392        H408   1.406       .  S
S394        H405   1.407       .  S
C396        C397   1.403       .  A
C396        S401   1.808       .  S
C397        C398   1.403   1_455  A
C397        H402   1.083       .  S
C398        C399   1.414       .  A
C399        C400   1.400       .  A
C399        S403   1.804       .  S
C400        H404   1.084       .  S
S401        H406   1.406       .  S
S403        H407   1.406       .  S
C409        C410   1.405       .  A
C409        C414   1.402       .  A
C409        H419   1.084       .  S
C410        C411   1.412       .  A
C410        C415   1.484       .  S
C411        C412   1.397       .  A
C411        S416   1.805       .  S
C412        C413   1.405       .  A
C412        H417   1.084       .  S
C413        C414   1.416       .  A
C414        S418   1.802       .  S
C415        C420   1.410       .  A
C415        C424   1.401       .  A
S416        H432   1.406       .  S
S418        H429   1.407       .  S
C420        C421   1.405       .  A
C420        S425   1.807       .  S
C421        C422   1.406       .  A
C421        H426   1.082       .  S
C422        C423   1.418       .  A
C423        C424   1.399       .  A
C423        S427   1.804       .  S
C424        H428   1.084       .  S
S425        H430   1.407       .  S
S427        H431   1.407       .  S
C433        C434   1.404       .  A
C433        C438   1.401       .  A
C433        H443   1.084       .  S
C434        C435   1.415   1_455  A
C434        C439   1.486       .  S
C435        C436   1.398       .  A
C435        S440   1.805       .  S
C436        C437   1.404   1_655  A
C436        H441   1.084       .  S
C437        C438   1.415       .  A
C438        S442   1.803       .  S
C439        C444   1.412       .  A
C439        C448   1.402   1_455  A
S440        H456   1.405       .  S
S442        H453   1.407       .  S
C444        C445   1.404       .  A
C444        S449   1.806       .  S
C445        C446   1.406       .  A
C445        H450   1.083       .  S
C446        C447   1.416   1_455  A
C447        C448   1.398       .  A
C447        S451   1.803       .  S
C448        H452   1.084       .  S
S449        H454   1.407       .  S
S451        H455   1.408       .  S
C457        C458   1.403       .  A
C457        C462   1.398       .  A
C457        H467   1.084       .  S
C458        C459   1.413       .  A
C458        C463   1.481       .  S
C459        C460   1.399       .  A
C459        S464   1.804       .  S
C460        C461   1.404       .  A
C460        H465   1.084       .  S
C461        C462   1.415       .  A
C462        S466   1.803       .  S
C463        C468   1.411       .  A
C463        C472   1.404       .  A
S464        H480   1.406       .  S
S466        H477   1.404       .  S
C468        C469   1.401       .  A
C468        S473   1.808       .  S
C469        C470   1.403       .  A
C469        H474   1.083       .  S
C470        C471   1.412       .  A
C471        C472   1.403       .  A
C471        S475   1.808       .  S
C472        H476   1.083       .  S
S473        H478   1.407       .  S
S475        H479   1.406       .  S
C481        C482   1.403       .  A
C481        C486   1.401       .  A
C481        H491   1.084       .  S
C482        C483   1.414   1_655  A
C482        C487   1.482       .  S
C483        C484   1.400       .  A
C483        S488   1.805       .  S
C484        C485   1.401       .  A
C484        H489   1.082       .  S
C485        C486   1.411   1_455  A
C486        S490   1.804   1_565  S
C487        C492   1.410   1_655  A
C487        C496   1.401       .  A
S488        H504   1.405       .  S
S490        H501   1.404       .  S
C492        C493   1.404       .  A
C492        S497   1.807       .  S
C493        C494   1.405   1_455  A
C493        H498   1.083       .  S
C494        C495   1.417       .  A
C495        C496   1.400       .  A
C495        S499   1.805       .  S
C496        H500   1.084       .  S
S497        H502   1.407       .  S
S499        H503   1.406       .  S
C505        C506   1.402       .  A
C505        C510   1.401       .  A
C505        H515   1.084       .  S
C506        C507   1.412       .  A
C506        C511   1.483       .  S
C507        C508   1.401       .  A
C507        S512   1.803       .  S
C508        C509   1.406       .  A
C508        H513   1.084       .  S
C509        C510   1.417       .  A
C510        S514   1.803       .  S
C511        C516   1.411       .  A
C511        C520   1.403       .  A
S512        H528   1.405       .  S
S514        H525   1.408       .  S
C516        C517   1.404       .  A
C516        S521   1.807       .  S
C517        C518   1.403       .  A
C517        H522   1.082       .  S
C518        C519   1.411       .  A
C519        C520   1.400       .  A
C519        S523   1.805       .  S
C520        H524   1.084       .  S
S521        H526   1.406       .  S
S523        H527   1.405       .  S
C529        C530   1.401       .  A
C529        C534   1.400       .  A
C529        H539   1.084       .  S
C530        C531   1.411       .  A
C530        C535   1.479       .  S
C531        C532   1.399       .  A
C531        S536   1.805       .  S
C532        C533   1.408       .  A
C532        H537   1.084       .  S
C533        C534   1.418       .  A
C534        S538   1.802       .  S
C535        C540   1.408       .  A
C535        C544   1.402       .  A
S536        H552   1.405       .  S
S538        H549   1.408       .  S
C540        C541   1.402       .  A
C540        S545   1.807       .  S
C541        C542   1.406       .  A
C541        H546   1.083       .  S
C542        C543   1.415       .  A
C543        C544   1.399       .  A
C543        S547   1.803       .  S
C544        H548   1.084       .  S
S545        H550   1.407       .  S
S547        H551   1.406       .  S
C553        C554   1.404       .  A
C553        C558   1.402       .  A
C553        H563   1.082       .  S
C554        C555   1.413       .  A
C554        C559   1.482       .  S
C555        C556   1.399       .  A
C555        S560   1.806       .  S
C556        C557   1.403       .  A
C556        H561   1.084       .  S
C557        C558   1.415       .  A
C558        S562   1.805       .  S
C559        C564   1.410       .  A
C559        C568   1.403       .  A
S560        H576   1.406       .  S
S562        H573   1.406       .  S
C564        C565   1.403       .  A
C564        S569   1.807       .  S
C565        C566   1.404       .  A
C565        H570   1.082       .  S
C566        C567   1.414       .  A
C567        C568   1.401       .  A
C567        S571   1.803       .  S
C568        H572   1.083       .  S
S569        H574   1.407       .  S
S571        H575   1.407       .  S
C577        C578   1.401       .  A
C577        C582   1.399       .  A
C577        H587   1.084       .  S
C578        C579   1.413       .  A
C578        C583   1.479       .  S
C579        C580   1.400       .  A
C579        S584   1.805       .  S
C580        C581   1.404       .  A
C580        H585   1.084       .  S
C581        C582   1.414       .  A
C582        S586   1.804       .  S
C583        C588   1.407       .  A
C583        C592   1.399       .  A
S584        H600   1.405       .  S
S586        H597   1.406       .  S
C588        C589   1.404       .  A
C588        S593   1.807       .  S
C589        C590   1.411       .  A
C589        H594   1.082       .  S
C590        C591   1.422       .  A
C591        C592   1.399       .  A
C591        S595   1.801       .  S
C592        H596   1.084       .  S
S593        H598   1.407       .  S
S595        H599   1.408       .  S
C601        C602   1.400       .  A
C601        C606   1.400       .  A
C601        H611   1.084       .  S
C602        C603   1.409       .  A
C602        C607   1.477       .  S
C603        C604   1.398       .  A
C603        S608   1.806       .  S
C604        C605   1.410       .  A
C604        H609   1.083       .  S
C605        C606   1.421       .  A
C606        S610   1.802       .  S
C607        C612   1.408       .  A
C607        C616   1.400       .  A
S608        H624   1.404       .  S
S610        H621   1.408       .  S
C612        C613   1.403       .  A
C612        S617   1.806       .  S
C613        C614   1.404       .  A
C613        H618   1.083       .  S
C614        C615   1.415       .  A
C615        C616   1.399       .  A
C615        S619   1.804       .  S
C616        H620   1.084       .  S
S617        H622   1.407       .  S
S619        H623   1.406       .  S
C625        C626   1.403       .  A
C625        C630   1.399       .  A
C625        H635   1.084       .  S
C626        C627   1.414       .  A
C626        C631   1.484       .  S
C627        C628   1.401       .  A
C627        S632   1.805       .  S
C628        C629   1.404       .  A
C628        H633   1.084       .  S
C629        C630   1.415       .  A
C630        S634   1.805       .  S
C631        C636   1.412       .  A
C631        C640   1.402       .  A
S632        H648   1.406       .  S
S634        H645   1.406       .  S
C636        C637   1.405       .  A
C636        S641   1.807       .  S
C637        C638   1.404       .  A
C637        H642   1.083       .  S
C638        C639   1.415       .  A
C639        C640   1.398       .  A
C639        S643   1.804       .  S
C640        H644   1.084       .  S
S641        H646   1.407       .  S
S643        H647   1.407       .  S
C649        C650   1.404       .  A
C649        C654   1.400       .  A
C649        H659   1.084       .  S
C650        C651   1.412       .  A
C650        C655   1.483       .  S
C651        C652   1.399       .  A
C651        S656   1.804       .  S
C652        C653   1.403       .  A
C652        H657   1.084       .  S
C653        C654   1.412       .  A
C654        S658   1.804       .  S
C655        C660   1.410       .  A
C655        C664   1.402       .  A
S656        H672   1.406       .  S
S658        H669   1.407       .  S
C660        C661   1.405       .  A
C660        S665   1.806       .  S
C661        C662   1.407       .  A
C661        H666   1.083       .  S
C662        C663   1.416       .  A
C663        C664   1.399       .  A
C663        S667   1.804       .  S
C664        H668   1.084       .  S
S665        H670   1.404       .  S
S667        H671   1.406       .  S
C673        C674   1.405       .  A
C673        C678   1.400       .  A
C673        H683   1.083       .  S
C674        C675   1.413       .  A
C674        C679   1.486       .  S
C675        C676   1.400       .  A
C675        S680   1.805       .  S
C676        C677   1.405       .  A
C676        H681   1.084       .  S
C677        C678   1.414       .  A
C678        S682   1.805       .  S
C679        C684   1.411       .  A
C679        C688   1.404       .  A
S680        H696   1.406       .  S
S682        H693   1.406       .  S
C684        C685   1.403       .  A
C684        S689   1.808       .  S
C685        C686   1.404       .  A
C685        H690   1.083       .  S
C686        C687   1.414       .  A
C687        C688   1.401       .  A
C687        S691   1.803       .  S
C688        H692   1.084       .  S
S689        H694   1.407       .  S
S691        H695   1.407       .  S
C697        C698   1.406       .  A
C697        C702   1.404       .  A
C697       C1373   1.483       .  S
C698        C699   1.406       .  A
C698        H703   1.084       .  S
C699        C700   1.406       .  A
C699        C924   1.477       .  S
C700        C701   1.404       .  A
C700        H704   1.084       .  S
C701        C702   1.402       .  A
C701        C977   1.477       .  S
C702        H705   1.084       .  S
O706        V714   1.899       .  S
O706        C716   1.265       .  A
O707        V714   1.896       .  S
O707        C717   1.263       .  A
O708        V714   1.898       .  S
O708        C718   1.264       .  A
O709        V714   1.897       .  S
O709        C719   1.266       .  A
O710        V715   1.901       .  S
O710        C719   1.264       .  A
O711        V715   1.901       .  S
O711        C718   1.264       .  A
O712        V715   1.906       .  S
O712        C717   1.266       .  A
O713        V715   1.902       .  S
O713        C716   1.265       .  A
V714        V715   2.085       .  T
C716       C1382   1.479       .  S
C717       C1334   1.478       .  S
C718       C1349   1.473       .  S
C719       C1301   1.492       .  S
C720        C721   1.407       .  A
C720        C725   1.407       .  A
C720       C1358   1.486       .  S
C721        C722   1.404       .  A
C721        H726   1.084       .  S
C722        C723   1.402       .  A
C722        C937   1.475       .  S
C723        C724   1.402       .  A
C723        H727   1.084       .  S
C724        C725   1.404       .  A
C724        C994   1.475       .  S
C725        H728   1.084       .  S
C729        C730   1.404       .  A
C729        C734   1.406       .  A
C729       C1325   1.482       .  S
C730        C731   1.401       .  A
C730        H735   1.084       .  S
C731        C732   1.402   1_565  A
C731       C1005   1.473   1_565  S
C732        C733   1.404   1_545  A
C732        H736   1.084       .  S
C733        C734   1.406       .  A
C733        C950   1.475   1_565  S
C734        H737   1.084       .  S
C738        C739   1.402       .  A
C738        C743   1.404       .  A
C738       C1310   1.480       .  S
C739        C740   1.402       .  A
C739        H744   1.084       .  S
C740        C741   1.404       .  A
C740        C963   1.474       .  S
C741        C742   1.405       .  A
C741        H745   1.084       .  S
C742        C743   1.405       .  A
C742        C907   1.475       .  S
C743        H746   1.084       .  S
C747        C748   1.404       .  A
C747        C752   1.404       .  A
C747       C1277   1.482       .  S
C748        C749   1.403       .  A
C748        H753   1.084       .  S
C749        C750   1.404   1_565  A
C749        C952   1.474   1_565  S
C750        C751   1.404   1_545  A
C750        H754   1.084       .  S
C751        C752   1.404       .  A
C751       C1007   1.475   1_565  S
C752        H755   1.084       .  S
O756        V764   1.899       .  S
O756        C766   1.264       .  A
O757        V764   1.903       .  S
O757        C767   1.266       .  A
O758        V764   1.902       .  S
O758        C768   1.265       .  A
O759        V764   1.901       .  S
O759        C769   1.266       .  A
O760        V765   1.898       .  S
O760        C769   1.263       .  A
O761        V765   1.897       .  S
O761        C768   1.265       .  A
O762        V765   1.900       .  S
O762        C767   1.264       .  A
O763        V765   1.901       .  S
O763        C766   1.264       .  A
V764        V765   2.084       .  T
C766       C1262   1.477       .  S
C767       C1205   1.485       .  S
C768       C1229   1.486       .  S
C769       C1286   1.493       .  S
C770        C771   1.406       .  A
C770        C775   1.405       .  A
C770       C1253   1.481       .  S
C771        C772   1.404       .  A
C771        H776   1.084       .  S
C772        C773   1.402       .  A
C772        C966   1.477       .  S
C773        C774   1.403       .  A
C773        H777   1.084       .  S
C774        C775   1.404       .  A
C774        C909   1.472       .  S
C775        H778   1.084       .  S
C779        C780   1.406       .  A
C779        C784   1.404       .  A
C779       C1238   1.484       .  S
C780        C781   1.405       .  A
C780        H785   1.084       .  S
C781        C782   1.404       .  A
C781        C921   1.475       .  S
C782        C783   1.404       .  A
C782        H786   1.084       .  S
C783        C784   1.402       .  A
C783        C979   1.474       .  S
C784        H787   1.084       .  S
C788        C789   1.402       .  A
C788        C793   1.402       .  A
C788       C1214   1.476       .  S
C789        C790   1.404       .  A
C789        H794   1.084       .  S
C790        C791   1.406       .  A
C790        C992   1.475       .  S
C791        C792   1.406       .  A
C791        H795   1.084       .  S
C792        C793   1.404       .  A
C792        C935   1.478       .  S
C793        H796   1.084       .  S
C797        C798   1.406   1_655  A
C797        C802   1.408       .  A
C797       C1190   1.487       .  S
C798        C799   1.402       .  A
C798        H803   1.084       .  S
C799        C800   1.400       .  A
C799        C964   1.473       .  S
C800        C801   1.404   1_455  A
C800        H804   1.084       .  S
C801        C802   1.406       .  A
C801        C938   1.478       .  S
C802        H805   1.084       .  S
O806        V814   1.893   1_655  S
O806        C816   1.264       .  A
O807        V814   1.895       .  S
O807        C817   1.263       .  A
O808        V814   1.899       .  S
O808        C818   1.264       .  A
O809        V814   1.899       .  S
O809        C819   1.263       .  A
O810        V815   1.904       .  S
O810        C819   1.264       .  A
O811        V815   1.901       .  S
O811        C818   1.265       .  A
O812        V815   1.902       .  S
O812        C817   1.265       .  A
O813        V815   1.905   1_655  S
O813        C816   1.265       .  A
V814        V815   2.087       .  T
C816       C1109   1.482       .  S
C817       C1157   1.477       .  S
C818       C1142   1.483       .  S
C819       C1181   1.471   1_545  S
C820        C821   1.404       .  A
C820        C825   1.402       .  A
C820       C1166   1.479       .  S
C821        C822   1.404       .  A
C821        H826   1.084       .  S
C822        C823   1.403       .  A
C822        C978   1.472       .  S
C823        C824   1.405       .  A
C823        H827   1.084       .  S
C824        C825   1.402       .  A
C824        C949   1.474       .  S
C825        H828   1.084       .  S
C829        C830   1.407       .  A
C829        C834   1.403   1_455  A
C829       C1133   1.486       .  S
C830        C831   1.406       .  A
C830        H835   1.084       .  S
C831        C832   1.406       .  A
C831        C908   1.478       .  S
C832        C833   1.403   1_455  A
C832        H836   1.084       .  S
C833        C834   1.401       .  A
C833        C993   1.473       .  S
C834        H837   1.084       .  S
C838        C839   1.406       .  A
C838        C843   1.411       .  A
C838       C1118   1.490       .  S
C839        C840   1.401       .  A
C839        H844   1.084       .  S
C840        C841   1.399       .  A
C840       C1006   1.471       .  S
C841        C842   1.403       .  A
C841        H845   1.084       .  S
C842        C843   1.407       .  A
C842        C923   1.478       .  S
C843        H846   1.084       .  S
C847        C848   1.405       .  A
C847        C852   1.407   1_655  A
C847       C1094   1.481       .  S
C848        C849   1.402       .  A
C848        H853   1.084       .  S
C849        C850   1.401       .  A
C849        C991   1.474       .  S
C850        C851   1.404   1_655  A
C850        H854   1.084       .  S
C851        C852   1.405       .  A
C851        C910   1.476       .  S
C852        H855   1.084       .  S
O856        V864   1.895       .  S
O856        C866   1.264       .  A
O857        V864   1.895   1_655  S
O857        C867   1.263       .  A
O858        V864   1.894       .  S
O858        C868   1.263       .  A
O859        V864   1.896   1_655  S
O859        C869   1.264       .  A
O860        V865   1.905       .  S
O860        C869   1.266   1_455  A
O861        V865   1.906       .  S
O861        C868   1.266       .  A
O862        V865   1.905   1_655  S
O862        C867   1.265       .  A
O863        V865   1.906       .  S
O863        C866   1.266       .  A
V864        V865   2.086       .  T
C866       C1013   1.483       .  S
C867       C1061   1.477       .  S
C868       C1085   1.480       .  S
C869       C1046   1.481   1_545  S
C870        C871   1.407       .  A
C870        C875   1.402       .  A
C870       C1070   1.482       .  S
C871        C872   1.406       .  A
C871        H876   1.084       .  S
C872        C873   1.405       .  A
C872        C922   1.478       .  S
C873        C874   1.401       .  A
C873        H877   1.084       .  S
C874        C875   1.401       .  A
C874       C1008   1.470       .  S
C875        H878   1.084       .  S
C879        C880   1.407       .  A
C879        C884   1.400   1_655  A
C879       C1037   1.480       .  S
C880        C881   1.408       .  A
C880        H885   1.084       .  S
C881        C882   1.407       .  A
C881        C936   1.480       .  S
C882        C883   1.403   1_655  A
C882        H886   1.084   1_655  S
C883        C884   1.400       .  A
C883        C965   1.472       .  S
C884        H887   1.085       .  S
C888        C889   1.411       .  A
C888        C893   1.405       .  A
C888       C1022   1.489       .  S
C889        C890   1.407       .  A
C889        H894   1.083       .  S
C890        C891   1.402       .  A
C890        C951   1.479       .  S
C891        C892   1.399       .  A
C891        H895   1.084       .  S
C892        C893   1.401       .  A
C892        C980   1.469       .  S
C893        H896   1.084       .  S
O897        C907   1.265       .  A
O898        V905   1.905       .  S
O898        C908   1.266       .  A
O899        V905   1.906       .  S
O899        C909   1.265       .  A
O900        C910   1.266       .  A
O901        C910   1.264       .  A
O902        V906   1.894       .  S
O902        C909   1.263       .  A
O903        V906   1.899       .  S
O903        C908   1.264       .  A
O904        C907   1.264       .  A
V905        V906   2.088       .  T
O911        V919   1.904       .  S
O911        C921   1.265       .  A
O912        C922   1.265       .  A
O913        V919   1.909       .  S
O913        C923   1.266       .  A
O914        C924   1.266       .  A
O915        C924   1.264       .  A
O916        V920   1.895       .  S
O916        C923   1.264       .  A
O917        C922   1.264       .  A
O918        V920   1.898       .  S
O918        C921   1.264       .  A
V919        V920   2.088       .  T
O925        V933   1.901       .  S
O925        C935   1.264       .  A
O926        C936   1.265       .  A
O927        C937   1.264       .  A
O928        V933   1.896       .  S
O928        C938   1.264       .  A
O929        V934   1.906       .  S
O929        C938   1.265       .  A
O930        C937   1.265       .  A
O931        C936   1.266       .  A
O932        V934   1.904       .  S
O932        C935   1.266       .  A
V933        V934   2.087       .  T
O939        V947   1.901       .  S
O939        C949   1.265       .  A
O940        C950   1.265       .  A
O941        C951   1.265       .  A
O942        V947   1.902       .  S
O942        C952   1.265       .  A
O943        V948   1.898       .  S
O943        C952   1.264       .  A
O944        C951   1.265       .  A
O945        C950   1.264       .  A
O946        V948   1.896       .  S
O946        C949   1.263       .  A
V947        V948   2.088       .  T
O953        V961   1.900       .  S
O953        C963   1.264       .  A
O954        V961   1.899       .  S
O954        C964   1.265       .  A
O955        V961   1.901       .  S
O955        C965   1.264       .  A
O956        V961   1.899       .  S
O956        C966   1.265       .  A
O957        V962   1.902       .  S
O957        C966   1.264       .  A
O958        V962   1.898       .  S
O958        C965   1.264       .  A
O959        V962   1.901       .  S
O959        C964   1.264       .  A
O960        V962   1.900       .  S
O960        C963   1.265       .  A
V961        V962   2.088       .  T
O967        V975   1.902       .  S
O967        C977   1.265       .  A
O968        V975   1.901       .  S
O968        C978   1.264       .  A
O969        V975   1.902       .  S
O969        C979   1.265       .  A
O970        V975   1.901       .  S
O970        C980   1.264       .  A
O971        V976   1.894       .  S
O971        C980   1.263       .  A
O972        V976   1.897       .  S
O972        C979   1.263       .  A
O973        V976   1.899       .  S
O973        C978   1.264       .  A
O974        V976   1.901       .  S
O974        C977   1.265       .  A
V975        V976   2.088       .  T
O981        V989   1.898       .  S
O981        C991   1.264       .  A
O982        V989   1.900       .  S
O982        C992   1.264       .  A
O983        V989   1.900       .  S
O983        C993   1.264       .  A
O984        V989   1.897       .  S
O984        C994   1.265       .  A
O985        V990   1.903       .  S
O985        C994   1.265       .  A
O986        V990   1.901       .  S
O986        C993   1.265       .  A
O987        V990   1.902       .  S
O987        C992   1.265       .  A
O988        V990   1.902       .  S
O988        C991   1.264       .  A
V989        V990   2.088       .  T
O995       V1003   1.900   1_565  S
O995       C1005   1.264   1_565  A
O996       V1003   1.899       .  S
O996       C1006   1.264       .  A
O997       V1003   1.901   1_565  S
O997       C1007   1.265   1_565  A
O998       V1003   1.898       .  S
O998       C1008   1.264       .  A
O999       V1004   1.898       .  S
O999       C1008   1.264       .  A
O1000      V1004   1.900       .  S
O1000      C1007   1.265       .  A
O1001      V1004   1.897       .  S
O1001      C1006   1.264       .  A
O1002      V1004   1.898       .  S
O1002      C1005   1.264       .  A
V1003      V1004   2.089       .  T
C1009      C1010   1.405       .  A
C1009      C1014   1.403       .  A
C1009      H1019   1.084       .  S
C1010      C1011   1.413       .  A
C1010      C1015   1.484       .  S
C1011      C1012   1.398       .  A
C1011      S1016   1.806       .  S
C1012      C1013   1.406       .  A
C1012      H1017   1.084       .  S
C1013      C1014   1.415       .  A
C1014      S1018   1.802       .  S
C1015      C1020   1.410       .  A
C1015      C1024   1.402       .  A
S1016      H1032   1.406       .  S
S1018      H1029   1.407       .  S
C1020      C1021   1.404       .  A
C1020      S1025   1.807       .  S
C1021      C1022   1.407       .  A
C1021      H1026   1.082       .  S
C1022      C1023   1.416       .  A
C1023      C1024   1.400       .  A
C1023      S1027   1.803       .  S
C1024      H1028   1.084       .  S
S1025      H1030   1.407       .  S
S1027      H1031   1.407       .  S
C1033      C1034   1.402   1_455  A
C1033      C1038   1.399       .  A
C1033      H1043   1.084       .  S
C1034      C1035   1.413       .  A
C1034      C1039   1.483       .  S
C1035      C1036   1.401       .  A
C1035      S1040   1.803       .  S
C1036      C1037   1.403       .  A
C1036      H1041   1.084       .  S
C1037      C1038   1.414   1_655  A
C1038      S1042   1.804       .  S
C1039      C1044   1.410   1_655  A
C1039      C1048   1.400       .  A
S1040      H1056   1.407       .  S
S1042      H1053   1.406       .  S
C1044      C1045   1.406       .  A
C1044      S1049   1.805       .  S
C1045      C1046   1.406   1_455  A
C1045      H1050   1.083       .  S
C1046      C1047   1.416       .  A
C1047      C1048   1.397       .  A
C1047      S1051   1.803       .  S
C1048      H1052   1.084       .  S
S1049      H1054   1.406       .  S
S1051      H1055   1.407   1_565  S
C1057      C1058   1.404       .  A
C1057      C1062   1.402       .  A
C1057      H1067   1.084       .  S
C1058      C1059   1.413       .  A
C1058      C1063   1.484       .  S
C1059      C1060   1.397       .  A
C1059      S1064   1.805       .  S
C1060      C1061   1.403       .  A
C1060      H1065   1.084       .  S
C1061      C1062   1.414       .  A
C1062      S1066   1.803       .  S
C1063      C1068   1.412       .  A
C1063      C1072   1.403       .  A
S1064      H1080   1.406       .  S
S1066      H1077   1.406       .  S
C1068      C1069   1.402       .  A
C1068      S1073   1.808       .  S
C1069      C1070   1.403       .  A
C1069      H1074   1.083       .  S
C1070      C1071   1.416       .  A
C1071      C1072   1.400       .  A
C1071      S1075   1.805       .  S
C1072      H1076   1.084       .  S
S1073      H1078   1.407       .  S
S1075      H1079   1.406       .  S
C1081      C1082   1.402       .  A
C1081      C1086   1.397       .  A
C1081      H1091   1.084       .  S
C1082      C1083   1.416   1_455  A
C1082      C1087   1.486       .  S
C1083      C1084   1.402       .  A
C1083      S1088   1.805       .  S
C1084      C1085   1.404   1_655  A
C1084      H1089   1.084       .  S
C1085      C1086   1.415       .  A
C1086      S1090   1.803       .  S
C1087      C1092   1.414       .  A
C1087      C1096   1.403   1_455  A
S1088      H1104   1.406       .  S
S1090      H1101   1.407       .  S
C1092      C1093   1.403       .  A
C1092      S1097   1.808       .  S
C1093      C1094   1.403   1_455  A
C1093      H1098   1.083       .  S
C1094      C1095   1.414       .  A
C1095      C1096   1.400       .  A
C1095      S1099   1.804       .  S
C1096      H1100   1.084       .  S
S1097      H1102   1.406       .  S
S1099      H1103   1.406       .  S
C1105      C1106   1.405       .  A
C1105      C1110   1.402       .  A
C1105      H1115   1.084       .  S
C1106      C1107   1.412       .  A
C1106      C1111   1.484       .  S
C1107      C1108   1.397       .  A
C1107      S1112   1.805       .  S
C1108      C1109   1.405       .  A
C1108      H1113   1.084       .  S
C1109      C1110   1.416       .  A
C1110      S1114   1.802       .  S
C1111      C1116   1.410       .  A
C1111      C1120   1.401       .  A
S1112      H1128   1.406       .  S
S1114      H1125   1.407       .  S
C1116      C1117   1.405       .  A
C1116      S1121   1.807       .  S
C1117      C1118   1.406       .  A
C1117      H1122   1.082       .  S
C1118      C1119   1.418       .  A
C1119      C1120   1.399       .  A
C1119      S1123   1.804       .  S
C1120      H1124   1.084       .  S
S1121      H1126   1.407       .  S
S1123      H1127   1.407       .  S
C1129      C1130   1.404       .  A
C1129      C1134   1.401       .  A
C1129      H1139   1.084       .  S
C1130      C1131   1.415   1_455  A
C1130      C1135   1.486       .  S
C1131      C1132   1.398       .  A
C1131      S1136   1.805       .  S
C1132      C1133   1.404   1_655  A
C1132      H1137   1.084       .  S
C1133      C1134   1.415       .  A
C1134      S1138   1.803       .  S
C1135      C1140   1.412       .  A
C1135      C1144   1.402   1_455  A
S1136      H1152   1.405       .  S
S1138      H1149   1.407       .  S
C1140      C1141   1.404       .  A
C1140      S1145   1.806       .  S
C1141      C1142   1.406       .  A
C1141      H1146   1.083       .  S
C1142      C1143   1.416   1_455  A
C1143      C1144   1.398       .  A
C1143      S1147   1.803       .  S
C1144      H1148   1.084       .  S
S1145      H1150   1.407       .  S
S1147      H1151   1.408       .  S
C1153      C1154   1.403       .  A
C1153      C1158   1.398       .  A
C1153      H1163   1.084       .  S
C1154      C1155   1.413       .  A
C1154      C1159   1.481       .  S
C1155      C1156   1.399       .  A
C1155      S1160   1.804       .  S
C1156      C1157   1.404       .  A
C1156      H1161   1.084       .  S
C1157      C1158   1.415       .  A
C1158      S1162   1.803       .  S
C1159      C1164   1.411       .  A
C1159      C1168   1.404       .  A
S1160      H1176   1.406       .  S
S1162      H1173   1.404       .  S
C1164      C1165   1.401       .  A
C1164      S1169   1.808       .  S
C1165      C1166   1.403       .  A
C1165      H1170   1.083       .  S
C1166      C1167   1.412       .  A
C1167      C1168   1.403       .  A
C1167      S1171   1.808       .  S
C1168      H1172   1.083       .  S
S1169      H1174   1.407       .  S
S1171      H1175   1.406       .  S
C1177      C1178   1.403       .  A
C1177      C1182   1.401       .  A
C1177      H1187   1.084       .  S
C1178      C1179   1.414   1_655  A
C1178      C1183   1.482       .  S
C1179      C1180   1.400       .  A
C1179      S1184   1.805       .  S
C1180      C1181   1.401       .  A
C1180      H1185   1.082       .  S
C1181      C1182   1.411   1_455  A
C1182      S1186   1.804   1_565  S
C1183      C1188   1.410   1_655  A
C1183      C1192   1.401       .  A
S1184      H1200   1.405       .  S
S1186      H1197   1.404       .  S
C1188      C1189   1.404       .  A
C1188      S1193   1.807       .  S
C1189      C1190   1.405   1_455  A
C1189      H1194   1.083       .  S
C1190      C1191   1.417       .  A
C1191      C1192   1.400       .  A
C1191      S1195   1.805       .  S
C1192      H1196   1.084       .  S
S1193      H1198   1.407       .  S
S1195      H1199   1.406       .  S
C1201      C1202   1.402       .  A
C1201      C1206   1.401       .  A
C1201      H1211   1.084       .  S
C1202      C1203   1.412       .  A
C1202      C1207   1.483       .  S
C1203      C1204   1.401       .  A
C1203      S1208   1.803       .  S
C1204      C1205   1.406       .  A
C1204      H1209   1.084       .  S
C1205      C1206   1.417       .  A
C1206      S1210   1.803       .  S
C1207      C1212   1.411       .  A
C1207      C1216   1.403       .  A
S1208      H1224   1.405       .  S
S1210      H1221   1.408       .  S
C1212      C1213   1.404       .  A
C1212      S1217   1.807       .  S
C1213      C1214   1.403       .  A
C1213      H1218   1.082       .  S
C1214      C1215   1.411       .  A
C1215      C1216   1.400       .  A
C1215      S1219   1.805       .  S
C1216      H1220   1.084       .  S
S1217      H1222   1.406       .  S
S1219      H1223   1.405       .  S
C1225      C1226   1.402       .  A
C1225      C1230   1.400       .  A
C1225      H1235   1.084       .  S
C1226      C1227   1.411       .  A
C1226      C1231   1.479       .  S
C1227      C1228   1.399       .  A
C1227      S1232   1.805       .  S
C1228      C1229   1.408       .  A
C1228      H1233   1.084       .  S
C1229      C1230   1.418       .  A
C1230      S1234   1.802       .  S
C1231      C1236   1.408       .  A
C1231      C1240   1.402       .  A
S1232      H1248   1.405       .  S
S1234      H1245   1.408       .  S
C1236      C1237   1.402       .  A
C1236      S1241   1.807       .  S
C1237      C1238   1.406       .  A
C1237      H1242   1.083       .  S
C1238      C1239   1.415       .  A
C1239      C1240   1.399       .  A
C1239      S1243   1.803       .  S
C1240      H1244   1.084       .  S
S1241      H1246   1.407       .  S
S1243      H1247   1.406       .  S
C1249      C1250   1.404       .  A
C1249      C1254   1.402       .  A
C1249      H1259   1.083       .  S
C1250      C1251   1.413       .  A
C1250      C1255   1.482       .  S
C1251      C1252   1.399       .  A
C1251      S1256   1.806       .  S
C1252      C1253   1.403       .  A
C1252      H1257   1.084       .  S
C1253      C1254   1.415       .  A
C1254      S1258   1.805       .  S
C1255      C1260   1.410       .  A
C1255      C1264   1.403       .  A
S1256      H1272   1.406       .  S
S1258      H1269   1.406       .  S
C1260      C1261   1.403       .  A
C1260      S1265   1.807       .  S
C1261      C1262   1.404       .  A
C1261      H1266   1.082       .  S
C1262      C1263   1.414       .  A
C1263      C1264   1.401       .  A
C1263      S1267   1.803       .  S
C1264      H1268   1.083       .  S
S1265      H1270   1.407       .  S
S1267      H1271   1.407       .  S
C1273      C1274   1.401       .  A
C1273      C1278   1.399       .  A
C1273      H1283   1.084       .  S
C1274      C1275   1.412       .  A
C1274      C1279   1.479       .  S
C1275      C1276   1.400       .  A
C1275      S1280   1.805       .  S
C1276      C1277   1.404       .  A
C1276      H1281   1.084       .  S
C1277      C1278   1.414       .  A
C1278      S1282   1.804       .  S
C1279      C1284   1.407       .  A
C1279      C1288   1.399       .  A
S1280      H1296   1.405       .  S
S1282      H1293   1.406       .  S
C1284      C1285   1.404       .  A
C1284      S1289   1.807       .  S
C1285      C1286   1.411       .  A
C1285      H1290   1.082       .  S
C1286      C1287   1.422       .  A
C1287      C1288   1.399       .  A
C1287      S1291   1.801       .  S
C1288      H1292   1.084       .  S
S1289      H1294   1.407       .  S
S1291      H1295   1.408       .  S
C1297      C1298   1.400       .  A
C1297      C1302   1.400       .  A
C1297      H1307   1.084       .  S
C1298      C1299   1.409       .  A
C1298      C1303   1.477       .  S
C1299      C1300   1.398       .  A
C1299      S1304   1.806       .  S
C1300      C1301   1.410       .  A
C1300      H1305   1.083       .  S
C1301      C1302   1.421       .  A
C1302      S1306   1.802       .  S
C1303      C1308   1.408       .  A
C1303      C1312   1.400       .  A
S1304      H1320   1.404       .  S
S1306      H1317   1.408       .  S
C1308      C1309   1.403       .  A
C1308      S1313   1.806       .  S
C1309      C1310   1.404       .  A
C1309      H1314   1.083       .  S
C1310      C1311   1.415       .  A
C1311      C1312   1.398       .  A
C1311      S1315   1.804       .  S
C1312      H1316   1.084       .  S
S1313      H1318   1.407       .  S
S1315      H1319   1.406       .  S
C1321      C1322   1.403       .  A
C1321      C1326   1.399       .  A
C1321      H1331   1.083       .  S
C1322      C1323   1.414       .  A
C1322      C1327   1.484       .  S
C1323      C1324   1.401       .  A
C1323      S1328   1.805       .  S
C1324      C1325   1.404       .  A
C1324      H1329   1.084       .  S
C1325      C1326   1.415       .  A
C1326      S1330   1.805       .  S
C1327      C1332   1.412       .  A
C1327      C1336   1.402       .  A
S1328      H1344   1.406       .  S
S1330      H1341   1.406       .  S
C1332      C1333   1.405       .  A
C1332      S1337   1.807       .  S
C1333      C1334   1.404       .  A
C1333      H1338   1.083       .  S
C1334      C1335   1.415       .  A
C1335      C1336   1.398       .  A
C1335      S1339   1.804       .  S
C1336      H1340   1.084       .  S
S1337      H1342   1.407       .  S
S1339      H1343   1.407       .  S
C1345      C1346   1.404       .  A
C1345      C1350   1.400       .  A
C1345      H1355   1.084       .  S
C1346      C1347   1.412       .  A
C1346      C1351   1.483       .  S
C1347      C1348   1.399       .  A
C1347      S1352   1.804       .  S
C1348      C1349   1.403       .  A
C1348      H1353   1.084       .  S
C1349      C1350   1.412       .  A
C1350      S1354   1.804       .  S
C1351      C1356   1.410       .  A
C1351      C1360   1.402       .  A
S1352      H1368   1.406       .  S
S1354      H1365   1.407       .  S
C1356      C1357   1.405       .  A
C1356      S1361   1.806       .  S
C1357      C1358   1.407       .  A
C1357      H1362   1.083       .  S
C1358      C1359   1.416       .  A
C1359      C1360   1.399       .  A
C1359      S1363   1.804       .  S
C1360      H1364   1.084       .  S
S1361      H1366   1.404       .  S
S1363      H1367   1.406       .  S
C1369      C1370   1.405       .  A
C1369      C1374   1.400       .  A
C1369      H1379   1.083       .  S
C1370      C1371   1.413       .  A
C1370      C1375   1.486       .  S
C1371      C1372   1.400       .  A
C1371      S1376   1.805       .  S
C1372      C1373   1.405       .  A
C1372      H1377   1.084       .  S
C1373      C1374   1.414       .  A
C1374      S1378   1.805       .  S
C1375      C1380   1.411       .  A
C1375      C1384   1.404       .  A
S1376      H1392   1.406       .  S
S1378      H1389   1.406       .  S
C1380      C1381   1.403       .  A
C1380      S1385   1.808       .  S
C1381      C1382   1.404       .  A
C1381      H1386   1.083       .  S
C1382      C1383   1.414       .  A
C1383      C1384   1.401       .  A
C1383      S1387   1.803       .  S
C1384      H1388   1.084       .  S
S1385      H1390   1.407       .  S
S1387      H1391   1.407       .  S
