geometry optimzed in LAMMPS
_audit_creation_date              2020-11-30 
_audit_creation_method            'lammps2cif' 
_symmetry_space_group_name_H-M    'P1' 
_symmetry_Int_Tables_number       1 
_symmetry_cell_setting            triclinic 
loop_ 
_symmetry_equiv_pos_as_xyz 
  x,y,z 
_cell_length_a                    31.09943118445171 
_cell_length_b                    31.381762135269597 
_cell_length_c                    31.256706107315612 
_cell_angle_alpha                 89.5208732709963 
_cell_angle_beta                  90.0148362528621 
_cell_angle_gamma                 89.94959294838159 
loop_ 
_atom_site_label 
_atom_site_type_symbol 
_atom_site_fract_x 
_atom_site_fract_y 
_atom_site_fract_z 
_atom_site_charge 
C1          C  0.49551016  0.24967394  0.22701151     0.00420
C2          C  0.99353986  0.24797965  0.27096370     0.00420
O3          O  0.49774889  0.12163400  0.06708354    -0.86640
O4          O  0.50851139  0.37997462  0.07159136    -0.86800
O5          O  0.43396784  0.00170206  0.12147027    -0.88470
O6          O  0.07462926  0.99993107  0.11826702    -0.87230
O7          O  0.12568485  0.00304874  0.06519933    -0.86820
O8          O  0.38001463  0.99759322  0.07150468    -0.88190
O9          O  0.50507123  0.43239290  0.12243374    -0.86670
O10         O  0.50340190  0.07071676  0.12012443    -0.86250
Zr11       Zr  0.50365065  0.00124388  0.08551733     2.84310
O12         O  0.04703026  0.45871738  0.04206580    -1.08230
O13         O  0.45820035  0.04324131  0.04303383    -1.08960
C14         C  0.50005910  0.10967575  0.10679280     1.06470
C15         C  0.50741357  0.39308152  0.11064348     1.06410
C16         C  0.39401101  0.99962231  0.11018873     1.09400
C17         C  0.11388985  0.00089208  0.10482852     1.07180
H18         H  0.44271843  0.43869140  0.06343885     0.32730
O19         O  0.45975924  0.45664068  0.04479742    -1.29180
H20         H  0.06344363  0.06322699  0.05774257     0.32410
O21         O  0.04541139  0.04494635  0.04070123    -1.30860
O22         O  0.50200999  0.37701511  0.43312228    -0.86630
O23         O  0.49902201  0.11864189  0.42601138    -0.88130
O24         O  0.38018099  0.42895470  0.00068585    -0.86710
O25         O  0.12664270  0.43556466  0.99774512    -0.86760
O26         O  0.12306599  0.07134878  0.49233862    -0.86470
O27         O  0.37790616  0.06853345  0.50331590    -0.86270
O28         O  0.42513142  0.49514355  0.38215920    -0.86640
O29         O  0.06583248  0.50024677  0.37527752    -0.86110
O30         O  0.37463891  0.50000674  0.43556387    -0.87170
O31         O  0.12007167  0.50132957  0.42520717    -0.86330
O32         O  0.43346591  0.37810843  0.00368468    -0.86730
O33         O  0.42983722  0.12026194  0.49794001    -0.86450
O34         O  0.06944965  0.12153779  0.49543223    -0.86100
O35         O  0.07571997  0.38245735  0.99857324    -0.86510
O36         O  0.49715307  0.42714164  0.37947054    -0.86800
O37         O  0.49455319  0.06593856  0.37541635    -0.88140
Zr38       Zr  0.50341256  0.41397361  0.00135023     2.83100
Zr39       Zr  0.49976952  0.08594771  0.49742420     2.83500
Zr40       Zr  0.41426860  0.49896570  0.50212394     2.84090
Zr41       Zr  0.08786829  0.50226665  0.49642834     2.83360
Zr42       Zr  0.49739656  0.49771936  0.41298293     2.84180
O43         O  0.04171898  0.04281249  0.45332494    -1.08710
O44         O  0.45667313  0.45496726  0.45890031    -1.08210
C45         C  0.49968938  0.38819158  0.39332109     1.06440
C46         C  0.49649135  0.10525375  0.38704202     1.09060
C47         C  0.39361456  0.39001362  0.00229113     1.06620
C48         C  0.11497006  0.39626685  0.99781461     1.06980
C49         C  0.10936650  0.11011882  0.49344057     1.06560
C50         C  0.39036883  0.10779984  0.50030873     1.06110
C51         C  0.38603776  0.49731052  0.39612569     1.06540
C52         C  0.10582493  0.50127001  0.38635845     1.06050
H53         H  0.43667079  0.05913711  0.43874428     0.32730
O54         O  0.45540102  0.04181588  0.45636444    -1.29810
H55         H  0.06193177  0.43949678  0.43745067     0.32750
O56         O  0.04422832  0.45709883  0.45553136    -1.31200
C57         C  0.27399249  0.50507167  0.25134733     0.00420
C58         C  0.23018640  0.50301178  0.24839554     0.00420
C59         C  0.22819064  0.25256495  0.00183220     0.00420
C60         C  0.27213415  0.25045732  0.00089307     0.00420
C61         C  0.29926402  0.28977524  0.00154098    -0.00300
C62         C  0.32620090  0.29525914  0.03695653    -0.12180
C63         C  0.35686149  0.32767551  0.03767049     0.01930
C64         C  0.36056568  0.35622069  0.00289202    -0.00390
C65         C  0.33318654  0.35141567  0.46755479    -0.12120
C66         C  0.30352753  0.31771567  0.46602940     0.01820
H67         H  0.32408366  0.27313120  0.06374287     0.14800
H68         H  0.33649426  0.37272220  0.44027303     0.14800
C69         C  0.28117162  0.31019490  0.42635694     0.36450
C70         C  0.38447749  0.33037546  0.07438913     0.36360
N71         N  0.26398697  0.30414520  0.39412985    -0.43890
N72         N  0.40653440  0.33147304  0.10405250    -0.43890
C73         C  0.35713914  0.14164963  0.49847202    -0.00300
C74         C  0.32400955  0.14259726  0.02905647    -0.12180
C75         C  0.29515650  0.17716477  0.03069404     0.01930
C76         C  0.29726185  0.20978765  0.49919548    -0.00390
C77         C  0.32911356  0.20733833  0.46759201    -0.12120
C78         C  0.35973211  0.17496798  0.46797493     0.01820
H79         H  0.32248904  0.11782126  0.05341110     0.14800
H80         H  0.33170219  0.23246240  0.44369577     0.14800
C81         C  0.39492225  0.17869017  0.43819377     0.36450
C82         C  0.26649886  0.18003045  0.06683718     0.36360
N83         N  0.42353883  0.18335747  0.41506208    -0.43890
N84         N  0.24380040  0.18217778  0.09607417    -0.43890
C85         C  0.14941080  0.36435824  0.99657767    -0.00300
C86         C  0.17387045  0.35631679  0.03343485    -0.12180
C87         C  0.20321906  0.32241304  0.03462216     0.01930
C88         C  0.20580733  0.29452046  0.99943149    -0.00390
C89         C  0.18354401  0.30473978  0.46165692    -0.12120
C90         C  0.15738572  0.34086114  0.45935433     0.01820
H91         H  0.16915191  0.37574837  0.06159352     0.14800
H92         H  0.18679594  0.28449109  0.43390262     0.14800
C93         C  0.14092830  0.35465770  0.41830476     0.36450
C94         C  0.22741752  0.31492577  0.07339062     0.36360
N95         N  0.12839973  0.36621116  0.38531562    -0.43890
N96         N  0.24651682  0.30903391  0.10466784    -0.43890
C97         C  0.14159325  0.14460039  0.49508895    -0.00300
C98         C  0.13510509  0.17653567  0.02523596    -0.12180
C99         C  0.16364472  0.21045598  0.02907578     0.01930
C100        C  0.19949632  0.21403995  0.50115388    -0.00390
C101        C  0.20594324  0.18179892  0.47066263    -0.12120
C102        C  0.17808595  0.14663039  0.46827535     0.01820
H103        H  0.10772941  0.17450416  0.04672523     0.14800
H104        H  0.23239266  0.18428915  0.44822803     0.14800
C105        C  0.18691873  0.11389472  0.43728802     0.36450
C106        C  0.15510658  0.23989968  0.06323030     0.36360
N107        N  0.19410618  0.08760019  0.41253677    -0.43890
N108        N  0.14663915  0.26235617  0.09117867    -0.43890
C109        C  0.35175419  0.49668578  0.36397009    -0.00300
C110        C  0.32522415  0.03248970  0.35826288    -0.12180
C111        C  0.29660767  0.03472048  0.32362166     0.01930
C112        C  0.29650637  0.50172501  0.29316798    -0.00390
C113        C  0.32161515  0.46523358  0.30044871    -0.12120
C114        C  0.34714911  0.46160386  0.33685348     0.01820
H115        H  0.32786318  0.05912817  0.37999438     0.14800
H116        H  0.32030682  0.43903790  0.27804973     0.14800
C117        C  0.36443108  0.42046100  0.34844604     0.36450
C118        C  0.27026361  0.07228019  0.31825888     0.36360
N119        N  0.37603725  0.38701767  0.35915700    -0.43890
N120        N  0.24915828  0.10239661  0.31391692    -0.43890
C121        C  0.13811460  0.50231348  0.35178736    -0.00300
C122        C  0.17200642  0.47279775  0.35265718    -0.12180
C123        C  0.20174809  0.47103089  0.31900569     0.01930
C124        C  0.20135257  0.50304511  0.28679044    -0.00390
C125        C  0.16762333  0.03281070  0.28657339    -0.12120
C126        C  0.13488736  0.03097175  0.31698056     0.01820
H127        H  0.17317739  0.44893589  0.37794820     0.14800
H128        H  0.16527651  0.05590523  0.26063705     0.14800
C129        C  0.09682509  0.05605166  0.30914181     0.36450
C130        C  0.22768985  0.43309925  0.31561561     0.36360
N131        N  0.06583905  0.07476710  0.30087417    -0.43890
N132        N  0.24723646  0.40180482  0.31324411    -0.43890
C133        C  0.14777067  0.99887568  0.13794608    -0.00300
C134        C  0.17883210  0.03125783  0.14027464    -0.12180
C135        C  0.20740132  0.03315106  0.17511307     0.01930
C136        C  0.20679358  0.00057784  0.20669299    -0.00390
C137        C  0.17756216  0.46698331  0.20249473    -0.12120
C138        C  0.14746345  0.46660998  0.16957320     0.01820
H139        H  0.17874984  0.05666417  0.11653139     0.14800
H140        H  0.17646392  0.44214277  0.22685142     0.14800
C141        C  0.11530169  0.43373908  0.17076025     0.36450
C142        C  0.23414824  0.07039007  0.17942660     0.36360
N143        N  0.08952172  0.40742080  0.17347711    -0.43890
N144        N  0.25540436  0.10043428  0.18270074    -0.43890
C145        C  0.36177370  0.00089535  0.14453464    -0.00300
C146        C  0.36682275  0.03152626  0.17627382    -0.12180
C147        C  0.33763083  0.03458236  0.20988496     0.01930
C148        C  0.30290923  0.00545517  0.21308255    -0.00390
C149        C  0.29821735  0.47432579  0.18128755    -0.12120
C150        C  0.32651038  0.47265253  0.14649058     0.01820
H151        H  0.39346412  0.05380085  0.17435749     0.14800
H152        H  0.27287000  0.45078124  0.18392732     0.14800
C153        C  0.31947219  0.44077835  0.11417156     0.36450
C154        C  0.34424640  0.06874903  0.23980704     0.36360
N155        N  0.31344048  0.41540793  0.08819694    -0.43890
N156        N  0.35076788  0.09660063  0.26295946    -0.43890
C157        C  0.49402039  0.20579690  0.29354943    -0.00300
C158        C  0.03341248  0.19018504  0.30908888    -0.12180
C159        C  0.03458307  0.15869840  0.34085171     0.01930
C160        C  0.49644440  0.13775739  0.35285428    -0.00390
C161        C  0.45767320  0.14896209  0.33268731    -0.12120
C162        C  0.45590937  0.18393849  0.30442860     0.01820
H163        H  0.06323150  0.20486643  0.29875079     0.14800
H164        H  0.42834637  0.13224369  0.34122346     0.14800
C165        C  0.41467235  0.19740150  0.28812800     0.36450
C166        C  0.07502785  0.14949378  0.36166662     0.36360
N167        N  0.38131044  0.20769266  0.27530031    -0.43890
N168        N  0.10746597  0.14230936  0.37834847    -0.43890
C169        C  0.49984772  0.35351260  0.36110592    -0.00300
C170        C  0.46977853  0.35430125  0.32773641    -0.12180
C171        C  0.46392319  0.31847366  0.30169820     0.01930
C172        C  0.49630790  0.28671428  0.29962027    -0.00390
C173        C  0.02830247  0.28787736  0.33165869    -0.12120
C174        C  0.02691837  0.31762022  0.36472405     0.01820
H175        H  0.44748669  0.38059780  0.32542650     0.14800
H176        H  0.05279848  0.26377581  0.33364177     0.14800
C177        C  0.04953541  0.30729109  0.40377821     0.36450
C178        C  0.42089928  0.31114227  0.28636768     0.36360
N179        N  0.06583313  0.29733097  0.43561803    -0.43890
N180        N  0.38582009  0.30599401  0.27515837    -0.43890
C181        C  0.50711185  0.36003482  0.14445192    -0.00300
C182        C  0.04071030  0.33023192  0.14698853    -0.12180
C183        C  0.03963099  0.29704022  0.17737068     0.01930
C184        C  0.50217783  0.29022217  0.20222789    -0.00390
C185        C  0.46812230  0.31910231  0.19749539    -0.12120
C186        C  0.47192167  0.35579241  0.17232104     0.01820
H187        H  0.06832427  0.33363206  0.12603444     0.14800
H188        H  0.43733739  0.31194276  0.21092461     0.14800
C189        C  0.43784484  0.38705930  0.17372509     0.36450
C190        C  0.07729878  0.27058155  0.18219556     0.36360
N191        N  0.41051625  0.41201303  0.17540724    -0.43890
N192        N  0.10795025  0.24997642  0.18612640    -0.43890
C193        C  0.49827817  0.14332986  0.13975506    -0.00300
C194        C  0.46211313  0.16998109  0.14153195    -0.12180
C195        C  0.45942399  0.20279491  0.17165639     0.01930
C196        C  0.49375094  0.21004350  0.20034772    -0.00390
C197        C  0.02922729  0.18221924  0.19954437    -0.12120
C198        C  0.03176689  0.14917093  0.16961388     0.01820
H199        H  0.43577691  0.16502533  0.11935562     0.14800
H200        H  0.05596788  0.18748536  0.22103938     0.14800
C201        C  0.07025460  0.12343371  0.16834863     0.36450
C202        C  0.42065991  0.22804709  0.17291455     0.36360
N203        N  0.10122841  0.10301288  0.16718482    -0.43890
N204        N  0.38919610  0.24773410  0.17387755    -0.43890
C205        C  0.49551002  0.24967410  0.72701157     0.00420
C206        C  0.99354002  0.24797946  0.77096377     0.00420
O207        O  0.49774876  0.12163448  0.56708348    -0.86640
O208        O  0.50851043  0.37997508  0.57159139    -0.86800
O209        O  0.43396749  0.00170266  0.62147018    -0.88470
O210        O  0.07462892  0.99993144  0.61826706    -0.87230
O211        O  0.12568452  0.00304899  0.56519936    -0.86820
O212        O  0.38001428  0.99759430  0.57150455    -0.88190
O213        O  0.50507067  0.43239336  0.62243380    -0.86670
O214        O  0.50340158  0.07071719  0.62012436    -0.86250
Zr215      Zr  0.50365030  0.00124432  0.58551731     2.84310
O216        O  0.04702970  0.45871771  0.54206571    -1.08230
O217        O  0.45820015  0.04324197  0.54303385    -1.08960
C218        C  0.50005887  0.10967619  0.60679272     1.06470
C219        C  0.50741279  0.39308196  0.61064355     1.06410
C220        C  0.39401066  0.99962315  0.61018861     1.09400
C221        C  0.11388952  0.00089239  0.60482857     1.07180
H222        H  0.44271776  0.43869216  0.56343878     0.32730
O223        O  0.45975866  0.45664136  0.54479736    -1.29180
H224        H  0.06344344  0.06322729  0.55774260     0.32410
O225        O  0.04541116  0.04494671  0.54070125    -1.30860
O226        O  0.50201082  0.37701458  0.93312244    -0.86630
O227        O  0.49902217  0.11864136  0.92601129    -0.88130
O228        O  0.38018010  0.42895595  0.50068576    -0.86710
O229        O  0.12664196  0.43556475  0.49774515    -0.86760
O230        O  0.12306611  0.07134861  0.99233853    -0.86470
O231        O  0.37790623  0.06853237  0.00331583    -0.86270
O232        O  0.42513165  0.49514280  0.88215920    -0.86640
O233        O  0.06583268  0.50024629  0.87527757    -0.86110
O234        O  0.37463918  0.50000562  0.93556394    -0.87170
O235        O  0.12007192  0.50132930  0.92520717    -0.86330
O236        O  0.43346476  0.37810940  0.50368456    -0.86730
O237        O  0.42983713  0.12026105  0.99793993    -0.86450
O238        O  0.06944966  0.12153751  0.99543216    -0.86100
O239        O  0.07571907  0.38245760  0.49857328    -0.86510
O240        O  0.49715349  0.42714108  0.87947070    -0.86800
O241        O  0.49455338  0.06593802  0.87541629    -0.88140
Zr242      Zr  0.50341176  0.41397408  0.50135018     2.83100
Zr243      Zr  0.49976961  0.08594721  0.99742420     2.83500
Zr244      Zr  0.41426895  0.49896476  0.00212401     2.84090
Zr245      Zr  0.08786864  0.50226639  0.99642834     2.83360
Zr246      Zr  0.49739681  0.49771883  0.91298297     2.84180
O247        O  0.04171915  0.04281207  0.95332495    -1.08710
O248        O  0.45667367  0.45496652  0.95890039    -1.08210
C249        C  0.49969000  0.38819105  0.89332126     1.06440
C250        C  0.49649155  0.10525323  0.88704192     1.09060
C251        C  0.39361348  0.39001481  0.50229102     1.06620
C252        C  0.11496919  0.39626699  0.49781468     1.06980
C253        C  0.10936654  0.11011862  0.99344044     1.06560
C254        C  0.39036878  0.10779880  0.00030860     1.06110
C255        C  0.38603798  0.49730957  0.89612573     1.06540
C256        C  0.10582513  0.50126963  0.88635848     1.06050
H257        H  0.43667091  0.05913633  0.93874435     0.32730
O258        O  0.45540119  0.04181518  0.95636453    -1.29810
H259        H  0.06193232  0.43949647  0.93745064     0.32750
O260        O  0.04422882  0.45709848  0.95553132    -1.31200
C261        C  0.27399245  0.50507152  0.75134743     0.00420
C262        C  0.23018635  0.50301165  0.74839558     0.00420
C263        C  0.22819018  0.25256543  0.50183265     0.00420
C264        C  0.27213370  0.25045812  0.50089334     0.00420
C265        C  0.29926316  0.28977628  0.50154110    -0.00300
C266        C  0.32619906  0.29526120  0.53695718    -0.12180
C267        C  0.35685926  0.32767791  0.53767122     0.01930
C268        C  0.36056442  0.35622205  0.50289201    -0.00390
C269        C  0.33318694  0.35141522  0.96755532    -0.12120
C270        C  0.30352790  0.31771527  0.96602973     0.01820
H271        H  0.32408126  0.27313388  0.56374400     0.14800
H272        H  0.33649410  0.37272238  0.94027397     0.14800
C273        C  0.28117163  0.31019513  0.92635735     0.36450
C274        C  0.38447356  0.33037958  0.57439096     0.36360
N275        N  0.26398678  0.30414595  0.89413026    -0.43890
N276        N  0.40652889  0.33147871  0.60405540    -0.43890
C277        C  0.35713900  0.14164848  0.99847171    -0.00300
C278        C  0.32400963  0.14259827  0.52905673    -0.12180
C279        C  0.29515648  0.17716570  0.53069434     0.01930
C280        C  0.29726192  0.20978665  0.99919510    -0.00390
C281        C  0.32911346  0.20733711  0.96759150    -0.12120
C282        C  0.35973192  0.17496668  0.96797444     0.01820
H283        H  0.32248909  0.11782217  0.55341125     0.14800
H284        H  0.33170209  0.23246113  0.94369520     0.14800
C285        C  0.39492199  0.17868872  0.93819321     0.36450
C286        C  0.26649880  0.18003121  0.56683746     0.36360
N287        N  0.42353854  0.18335593  0.91506148    -0.43890
N288        N  0.24380031  0.18217841  0.59607444    -0.43890
C289        C  0.14940985  0.36435833  0.49657789    -0.00300
C290        C  0.17386926  0.35631689  0.53343522    -0.12180
C291        C  0.20321801  0.32241327  0.53462264     0.01930
C292        C  0.20580666  0.29452082  0.49943189    -0.00390
C293        C  0.18354440  0.30473940  0.96165666    -0.12120
C294        C  0.15738632  0.34086090  0.95935413     0.01820
H295        H  0.16915045  0.37574839  0.56159391     0.14800
H296        H  0.18679601  0.28449060  0.93390241     0.14800
C297        C  0.14092874  0.35465745  0.91830462     0.36450
C298        C  0.22741618  0.31492602  0.57339128     0.36360
N299        N  0.12840005  0.36621090  0.88531552    -0.43890
N300        N  0.24651519  0.30903419  0.60466869    -0.43890
C301        C  0.14159327  0.14460023  0.99508864    -0.00300
C302        C  0.13510496  0.17653573  0.52523633    -0.12180
C303        C  0.16364445  0.21045615  0.52907621     0.01930
C304        C  0.19949656  0.21403963  0.00115341    -0.00390
C305        C  0.20594332  0.18179855  0.97066217    -0.12120
C306        C  0.17808595  0.14663009  0.96827501     0.01820
H307        H  0.10772926  0.17450411  0.54672555     0.14800
H308        H  0.23239273  0.18428867  0.94822754     0.14800
C309        C  0.18691867  0.11389430  0.93728778     0.36450
C310        C  0.15510604  0.23989981  0.56323069     0.36360
N311        N  0.19410608  0.08759967  0.91253662    -0.43890
N312        N  0.14663833  0.26235623  0.59117903    -0.43890
C313        C  0.35175434  0.49668496  0.86397013    -0.00300
C314        C  0.32522428  0.03248891  0.85826314    -0.12180
C315        C  0.29660772  0.03471988  0.82362198     0.01930
C316        C  0.29650636  0.50172458  0.79316810    -0.00390
C317        C  0.32161514  0.46523311  0.80044861    -0.12120
C318        C  0.34714916  0.46160319  0.83685336     0.01820
H319        H  0.32786334  0.05912727  0.87999477     0.14800
H320        H  0.32030676  0.43903754  0.77804951     0.14800
C321        C  0.36443096  0.42046021  0.84844577     0.36450
C322        C  0.27026367  0.07227962  0.81825946     0.36360
N323        N  0.37603692  0.38701678  0.85915661    -0.43890
N324        N  0.24915834  0.10239608  0.81391772    -0.43890
C325        C  0.13811473  0.50231313  0.85178739    -0.00300
C326        C  0.17200648  0.47279732  0.85265710    -0.12180
C327        C  0.20174809  0.47103052  0.81900558     0.01930
C328        C  0.20135259  0.50304487  0.78679047    -0.00390
C329        C  0.16762343  0.03281054  0.78657354    -0.12120
C330        C  0.13488748  0.03097151  0.81698070     0.01820
H331        H  0.17317744  0.44893539  0.87794805     0.14800
H332        H  0.16527663  0.05590516  0.76063728     0.14800
C333        C  0.09682518  0.05605138  0.80914198     0.36450
C334        C  0.22768976  0.43309884  0.81561530     0.36360
N335        N  0.06583911  0.07476677  0.80087435    -0.43890
N336        N  0.24723631  0.40180438  0.81324362    -0.43890
C337        C  0.14777036  0.99887596  0.63794616    -0.00300
C338        C  0.17883181  0.03125810  0.64027480    -0.12180
C339        C  0.20740109  0.03315121  0.67511321     0.01930
C340        C  0.20679341  0.00057788  0.70669303    -0.00390
C341        C  0.17756192  0.46698340  0.70249470    -0.12120
C342        C  0.14746316  0.46661017  0.66957320     0.01820
H343        H  0.17874953  0.05666451  0.61653163     0.14800
H344        H  0.17646369  0.44214279  0.72685131     0.14800
C345        C  0.11530143  0.43373925  0.67076012     0.36450
C346        C  0.23414808  0.07039016  0.67942681     0.36360
N347        N  0.08952148  0.40742091  0.67347681    -0.43890
N348        N  0.25540426  0.10043432  0.68270101    -0.43890
C349        C  0.36177338  0.00089608  0.64453452    -0.00300
C350        C  0.36682276  0.03152648  0.67627414    -0.12180
C351        C  0.33763094  0.03458234  0.70988538     0.01930
C352        C  0.30290917  0.00545531  0.71308266    -0.00390
C353        C  0.29821698  0.47432642  0.68128722    -0.12120
C354        C  0.32650980  0.47265355  0.64649009     0.01820
H355        H  0.39346431  0.05380089  0.67435808     0.14800
H356        H  0.27286950  0.45078198  0.68392671     0.14800
C357        C  0.31947092  0.44078025  0.61417036     0.36450
C358        C  0.34424677  0.06874862  0.73980785     0.36360
N359        N  0.31343852  0.41541063  0.58819511    -0.43890
N360        N  0.35076847  0.09659991  0.76296058    -0.43890
C361        C  0.49402064  0.20579654  0.79354932    -0.00300
C362        C  0.03341270  0.19018472  0.80908887    -0.12180
C363        C  0.03458328  0.15869805  0.84085169     0.01930
C364        C  0.49644465  0.13775688  0.85285412    -0.00390
C365        C  0.45767352  0.14896144  0.83268692    -0.12120
C366        C  0.45590967  0.18393791  0.80442827     0.01820
H367        H  0.06323173  0.20486614  0.79875084     0.14800
H368        H  0.42834672  0.13224289  0.84122288     0.14800
C369        C  0.41467266  0.19740079  0.78812754     0.36450
C370        C  0.07502801  0.14949352  0.86166671     0.36360
N371        N  0.38131074  0.20769181  0.77529976    -0.43890
N372        N  0.10746611  0.14230917  0.87834863    -0.43890
C373        C  0.49984822  0.35351210  0.86110613    -0.00300
C374        C  0.46977875  0.35430069  0.82773689    -0.12180
C375        C  0.46392330  0.31847310  0.80169875     0.01930
C376        C  0.49630813  0.28671390  0.79962049    -0.00390
C377        C  0.02830293  0.28787700  0.83165867    -0.12120
C378        C  0.02691895  0.31761978  0.86472409     0.01820
H379        H  0.44748681  0.38059717  0.82542720     0.14800
H380        H  0.05279904  0.26377555  0.83364152     0.14800
C381        C  0.04953612  0.30729056  0.90377816     0.36450
C382        C  0.42089928  0.31114149  0.78636862     0.36360
N383        N  0.06583394  0.29733035  0.93561790    -0.43890
N384        N  0.38582003  0.30599303  0.77515957    -0.43890
C385        C  0.50711127  0.36003523  0.64445203    -0.00300
C386        C  0.04070955  0.33023212  0.64698822    -0.12180
C387        C  0.03963048  0.29704047  0.67737045     0.01930
C388        C  0.50217757  0.29022249  0.70222806    -0.00390
C389        C  0.46812220  0.31910294  0.69749608    -0.12120
C390        C  0.47192158  0.35579314  0.67232183     0.01820
H391        H  0.06832329  0.33363213  0.62603381     0.14800
H392        H  0.43733741  0.31194365  0.71092569     0.14800
C393        C  0.43784542  0.38706072  0.67372703     0.36450
C394        C  0.07729834  0.27058188  0.68219514     0.36360
N395        N  0.41051741  0.41201501  0.67541009    -0.43890
N396        N  0.10794989  0.24997684  0.68612591    -0.43890
C397        C  0.49827796  0.14333027  0.63975497    -0.00300
C398        C  0.46211285  0.16998140  0.64153200    -0.12180
C399        C  0.45942379  0.20279521  0.67165644     0.01930
C400        C  0.49375082  0.21004379  0.70034765    -0.00390
C401        C  0.02922722  0.18221964  0.69954416    -0.12120
C402        C  0.03176682  0.14917143  0.66961359     0.01820
H403        H  0.43577656  0.16502559  0.61935577     0.14800
H404        H  0.05596787  0.18748579  0.72103910     0.14800
C405        C  0.07025467  0.12343443  0.66834803     0.36450
C406        C  0.42065973  0.22804745  0.67291470     0.36360
N407        N  0.10122861  0.10301381  0.66718394    -0.43890
N408        N  0.38919598  0.24773454  0.67387781    -0.43890
C409        C  0.49550967  0.74967386  0.22701155     0.00420
C410        C  0.99353931  0.74797958  0.27096374     0.00420
O411        O  0.49774942  0.62163397  0.06708363    -0.86640
O412        O  0.50851026  0.87997462  0.07159128    -0.86800
O413        O  0.43396858  0.50170206  0.12147002    -0.88470
O414        O  0.07462994  0.49993130  0.11826740    -0.87230
O415        O  0.12568567  0.50304907  0.06519987    -0.86820
O416        O  0.38001547  0.49759318  0.07150431    -0.88190
O417        O  0.50507020  0.93239287  0.12243369    -0.86670
O418        O  0.50340248  0.57071673  0.12012452    -0.86250
Zr419      Zr  0.50365146  0.50124388  0.08551738     2.84310
O420        O  0.04702938  0.95871739  0.04206559    -1.08230
O421        O  0.45820111  0.54324118  0.04303377    -1.08960
C422        C  0.50005959  0.60967572  0.10679289     1.06470
C423        C  0.50741244  0.89308148  0.11064342     1.06410
C424        C  0.39401178  0.49962235  0.11018838     1.09400
C425        C  0.11389057  0.50089242  0.10482903     1.07180
H426        H  0.44271755  0.93869146  0.06343895     0.32730
O427        O  0.45975834  0.95664072  0.04479749    -1.29180
H428        H  0.06344435  0.56322717  0.05774285     0.32410
O429        O  0.04541219  0.54494649  0.04070147    -1.30860
O430        O  0.50200844  0.87701516  0.43312225    -0.86630
O431        O  0.49902288  0.61864199  0.42601157    -0.88130
O432        O  0.38018000  0.92895496  0.00068612    -0.86710
O433        O  0.12664171  0.93556442  0.99774445    -0.86760
O434        O  0.12306679  0.57134884  0.49233891    -0.86470
O435        O  0.37790693  0.56853332  0.50331545    -0.86270
O436        O  0.42512966  0.99514347  0.38215953    -0.86640
O437        O  0.06583068  0.00024645  0.37527707    -0.86110
O438        O  0.37463741  0.00000681  0.43556441    -0.87170
O439        O  0.12007011  0.00132937  0.42520648    -0.86330
O440        O  0.43346490  0.87810865  0.00368474    -0.86730
O441        O  0.42983788  0.62026193  0.49793977    -0.86450
O442        O  0.06945033  0.62153776  0.49543229    -0.86100
O443        O  0.07571898  0.88245714  0.99857291    -0.86510
O444        O  0.49715118  0.92714161  0.37947046    -0.86800
O445        O  0.49455462  0.56593865  0.37541652    -0.88140
Zr446      Zr  0.50341156  0.91397363  0.00135017     2.83100
Zr447      Zr  0.49977027  0.58594772  0.49742431     2.83500
Zr448      Zr  0.41426762  0.99896585  0.50212421     2.84090
Zr449      Zr  0.08786731  0.00226654  0.49642790     2.83360
Zr450      Zr  0.49739503  0.99771933  0.41298286     2.84180
O451        O  0.04172011  0.54281262  0.45332524    -1.08710
O452        O  0.45667190  0.95496728  0.45890049    -1.08210
C453        C  0.49968758  0.88819158  0.39332105     1.06440
C454        C  0.49649245  0.60525386  0.38704221     1.09060
C455        C  0.39361359  0.89001390  0.00229128     1.06620
C456        C  0.11496910  0.89626658  0.99781407     1.06980
C457        C  0.10936718  0.61011882  0.49344069     1.06560
C458        C  0.39036948  0.60779977  0.50030834     1.06110
C459        C  0.38603604  0.99731044  0.39612618     1.06540
C460        C  0.10582318  0.00126966  0.38635782     1.06050
H461        H  0.43667199  0.55913696  0.43874412     0.32730
O462        O  0.45540216  0.54181576  0.45636436    -1.29810
H463        H  0.06193037  0.93949671  0.43745033     0.32750
O464        O  0.04422705  0.95709881  0.45553108    -1.31200
C465        C  0.27399116  0.00507094  0.25134749     0.00420
C466        C  0.23018508  0.00301107  0.24839531     0.00420
C467        C  0.22819070  0.75256500  0.00183189     0.00420
C468        C  0.27213420  0.75045725  0.00089269     0.00420
C469        C  0.29926385  0.78977516  0.00154064    -0.00300
C470        C  0.32620014  0.79525946  0.03695653    -0.12180
C471        C  0.35686032  0.82767615  0.03767076     0.01930
C472        C  0.36056479  0.85622102  0.00289209    -0.00390
C473        C  0.33318617  0.85141564  0.46755455    -0.12120
C474        C  0.30352742  0.81771547  0.46602901     0.01820
H475        H  0.32408267  0.77313168  0.06374299     0.14800
H476        H  0.33649403  0.87272208  0.44027274     0.14800
C477        C  0.28117177  0.81019446  0.42635645     0.36450
C478        C  0.38447541  0.83037690  0.07439000     0.36360
N479        N  0.26398728  0.80414455  0.39412931    -0.43890
N480        N  0.40653147  0.83147520  0.10405395    -0.43890
C481        C  0.35713967  0.64164956  0.49847159    -0.00300
C482        C  0.32400990  0.64259704  0.02905587    -0.12180
C483        C  0.29515673  0.67716449  0.03069345     0.01930
C484        C  0.29726210  0.70978756  0.49919507    -0.00390
C485        C  0.32911404  0.70733842  0.46759178    -0.12120
C486        C  0.35973268  0.67496809  0.46797468     0.01820
H487        H  0.32248932  0.61782094  0.05341038     0.14800
H488        H  0.33170274  0.73246258  0.44369565     0.14800
C489        C  0.39492289  0.67869042  0.43819361     0.36450
C490        C  0.26649898  0.68002991  0.06683652     0.36360
N491        N  0.42353951  0.68335778  0.41506198    -0.43890
N492        N  0.24380045  0.68217698  0.09607348    -0.43890
C493        C  0.14940993  0.86435793  0.99657720    -0.00300
C494        C  0.17386967  0.85631665  0.03343438    -0.12180
C495        C  0.20321862  0.82241313  0.03462171     0.01930
C496        C  0.20580720  0.79452052  0.99943107    -0.00390
C497        C  0.18354373  0.80473965  0.46165651    -0.12120
C498        C  0.15738505  0.84086078  0.45935389     0.01820
H499        H  0.16915100  0.87574823  0.06159303     0.14800
H500        H  0.18679584  0.78449097  0.43390222     0.14800
C501        C  0.14092757  0.85465715  0.41830429     0.36450
C502        C  0.22741719  0.81492621  0.07339016     0.36360
N503        N  0.12839896  0.86621044  0.38531511    -0.43890
N504        N  0.24651655  0.80903466  0.10466740    -0.43890
C505        C  0.14159380  0.64460038  0.49508898    -0.00300
C506        C  0.13510574  0.67653546  0.02523619    -0.12180
C507        C  0.16364524  0.71045585  0.02907588     0.01930
C508        C  0.19949654  0.71404002  0.50115366    -0.00390
C509        C  0.20594336  0.68179917  0.47066222    -0.12120
C510        C  0.17808623  0.64663056  0.46827507     0.01820
H511        H  0.10773026  0.67450374  0.04672569     0.14800
H512        H  0.23239261  0.68428960  0.44822743     0.14800
C513        C  0.18691889  0.61389502  0.43728756     0.36450
C514        C  0.15510736  0.73989934  0.06323064     0.36360
N515        N  0.19410625  0.58760062  0.41253615    -0.43890
N516        N  0.14664014  0.76235564  0.09117923    -0.43890
C517        C  0.35175231  0.99668544  0.36397069    -0.00300
C518        C  0.32522621  0.53249018  0.35826240    -0.12180
C519        C  0.29660965  0.53472114  0.32362129     0.01930
C520        C  0.29650469  0.00172433  0.29316835    -0.00390
C521        C  0.32161351  0.96523298  0.30044930    -0.12120
C522        C  0.34714735  0.96160342  0.33685418     0.01820
H523        H  0.32786541  0.55912859  0.37999395     0.14800
H524        H  0.32030537  0.93903725  0.27805037     0.14800
C525        C  0.36442935  0.92046063  0.34844691     0.36450
C526        C  0.27026579  0.57228100  0.31825863     0.36360
N527        N  0.37603553  0.88701734  0.35915798    -0.43890
N528        N  0.24916065  0.60239757  0.31391677    -0.43890
C529        C  0.13811269  0.00231287  0.35178662    -0.00300
C530        C  0.17200458  0.97279721  0.35265667    -0.12180
C531        C  0.20174632  0.97103024  0.31900528     0.01930
C532        C  0.20135087  0.00304434  0.28678992    -0.00390
C533        C  0.16762524  0.53281166  0.28657427    -0.12120
C534        C  0.13488938  0.53097268  0.31698155     0.01820
H535        H  0.17317557  0.94893552  0.37794785     0.14800
H536        H  0.16527843  0.55590635  0.26063806     0.14800
C537        C  0.09682724  0.55605284  0.30914306     0.36450
C538        C  0.22768809  0.93309859  0.31561540     0.36360
N539        N  0.06584130  0.57476848  0.30087557    -0.43890
N540        N  0.24723468  0.90180413  0.31324404    -0.43890
C541        C  0.14777133  0.49887619  0.13794669    -0.00300
C542        C  0.17883293  0.53125821  0.14027495    -0.12180
C543        C  0.20740226  0.53315156  0.17511329     0.01930
C544        C  0.20679451  0.50057853  0.20669341    -0.00390
C545        C  0.17756148  0.96698246  0.20249394    -0.12120
C546        C  0.14746289  0.96660921  0.16957232     0.01820
H547        H  0.17875074  0.55666437  0.11653151     0.14800
H548        H  0.17646327  0.94214177  0.22685048     0.14800
C549        C  0.11530130  0.93373816  0.17075904     0.36450
C550        C  0.23414935  0.57039050  0.17942646     0.36360
N551        N  0.08952147  0.90741972  0.17347565    -0.43890
N552        N  0.25540558  0.60043467  0.18270028    -0.43890
C553        C  0.36177448  0.50089565  0.14453420    -0.00300
C554        C  0.36682354  0.53152685  0.17627309    -0.12180
C555        C  0.33763176  0.53458309  0.20988431     0.01930
C556        C  0.30291024  0.50545585  0.21308220    -0.00390
C557        C  0.29821643  0.97432532  0.18128768    -0.12120
C558        C  0.32650952  0.97265229  0.14649075     0.01820
H559        H  0.39346487  0.55380147  0.17435653     0.14800
H560        H  0.27286904  0.95078078  0.18392720     0.14800
C561        C  0.31947118  0.94077849  0.11417138     0.36450
C562        C  0.34424746  0.56874992  0.23980619     0.36360
N563        N  0.31343927  0.91540841  0.08819647    -0.43890
N564        N  0.35076908  0.59660164  0.26295842    -0.43890
C565        C  0.49402037  0.70579684  0.29354949    -0.00300
C566        C  0.03341262  0.69018560  0.30908913    -0.12180
C567        C  0.03458356  0.65869917  0.34085213     0.01930
C568        C  0.49644518  0.63775751  0.35285450    -0.00390
C569        C  0.45767390  0.64896155  0.33268732    -0.12120
C570        C  0.45590964  0.68393787  0.30442854     0.01820
H571        H  0.06323147  0.70486733  0.29875105     0.14800
H572        H  0.42834730  0.63224271  0.34122338     0.14800
C573        C  0.41467249  0.69740018  0.28812770     0.36450
C574        C  0.07502833  0.64949546  0.36166743     0.36360
N575        N  0.38131047  0.70769074  0.27529982    -0.43890
N576        N  0.10746647  0.64231185  0.37834958    -0.43890
C577        C  0.49984598  0.85351254  0.36110596    -0.00300
C578        C  0.46977660  0.85430076  0.32773661    -0.12180
C579        C  0.46392167  0.81847306  0.30169845     0.01930
C580        C  0.49630691  0.78671423  0.29962029    -0.00390
C581        C  0.02830158  0.78787777  0.33165858    -0.12120
C582        C  0.02691708  0.81762052  0.36472400     0.01820
H583        H  0.44748440  0.88059700  0.32542677     0.14800
H584        H  0.05279801  0.76377665  0.33364153     0.14800
C585        C  0.04953412  0.80729151  0.40377820     0.36450
C586        C  0.42089781  0.81114097  0.28636808     0.36360
N587        N  0.06583180  0.79733149  0.43561807    -0.43890
N588        N  0.38581871  0.80599210  0.27515879    -0.43890
C589        C  0.50711081  0.86003474  0.14445182    -0.00300
C590        C  0.04070910  0.83023163  0.14698798    -0.12180
C591        C  0.03963005  0.79704003  0.17737024     0.01930
C592        C  0.50217715  0.79022211  0.20222788    -0.00390
C593        C  0.46812172  0.81910245  0.19749581    -0.12120
C594        C  0.47192100  0.85579256  0.17232145     0.01820
H595        H  0.06832282  0.83363162  0.12603356     0.14800
H596        H  0.43733694  0.81194307  0.21092539     0.14800
C597        C  0.43784449  0.88705977  0.17372614     0.36450
C598        C  0.07729792  0.77058144  0.18219487     0.36360
N599        N  0.41051616  0.91201373  0.17540881    -0.43890
N600        N  0.10794949  0.74997641  0.18612554    -0.43890
C601        C  0.49827843  0.64332981  0.13975516    -0.00300
C602        C  0.46211320  0.66998078  0.14153205    -0.12180
C603        C  0.45942386  0.70279460  0.17165647     0.01930
C604        C  0.49375073  0.71004338  0.20034782    -0.00390
C605        C  0.02922725  0.68221934  0.19954451    -0.12120
C606        C  0.03176713  0.64917111  0.16961396     0.01820
H607        H  0.43577703  0.66502486  0.11935571     0.14800
H608        H  0.05596778  0.68748561  0.22103956     0.14800
C609        C  0.07025509  0.62343426  0.16834859     0.36450
C610        C  0.42065968  0.72804664  0.17291456     0.36360
N611        N  0.10122912  0.60301378  0.16718466    -0.43890
N612        N  0.38919582  0.74773358  0.17387754    -0.43890
C613        C  0.49550953  0.74967402  0.72701161     0.00420
C614        C  0.99353951  0.74797939  0.77096380     0.00420
O615        O  0.49774929  0.62163446  0.56708358    -0.86640
O616        O  0.50850929  0.87997507  0.57159132    -0.86800
O617        O  0.43396823  0.50170266  0.62146993    -0.88470
O618        O  0.07462959  0.49993167  0.61826743    -0.87230
O619        O  0.12568534  0.50304932  0.56519990    -0.86820
O620        O  0.38001511  0.49759426  0.57150419    -0.88190
O621        O  0.50506964  0.93239333  0.62243375    -0.86670
O622        O  0.50340216  0.57071717  0.62012445    -0.86250
Zr623      Zr  0.50365111  0.50124432  0.58551736     2.84310
O624        O  0.04702881  0.95871771  0.54206551    -1.08230
O625        O  0.45820091  0.54324185  0.54303379    -1.08960
C626        C  0.50005935  0.60967616  0.60679282     1.06470
C627        C  0.50741166  0.89308192  0.61064348     1.06410
C628        C  0.39401143  0.49962320  0.61018826     1.09400
C629        C  0.11389024  0.50089273  0.60482908     1.07180
H630        H  0.44271688  0.93869221  0.56343887     0.32730
O631        O  0.45975776  0.95664140  0.54479743    -1.29180
H632        H  0.06344416  0.56322747  0.55774288     0.32410
O633        O  0.04541196  0.54494685  0.54070148    -1.30860
O634        O  0.50200926  0.87701464  0.93312240    -0.86630
O635        O  0.49902305  0.61864146  0.92601148    -0.88130
O636        O  0.38017911  0.92895620  0.50068603    -0.86710
O637        O  0.12664095  0.93556450  0.49774448    -0.86760
O638        O  0.12306692  0.57134866  0.99233881    -0.86470
O639        O  0.37790701  0.56853224  0.00331538    -0.86270
O640        O  0.42512988  0.99514272  0.88215954    -0.86640
O641        O  0.06583090  0.00024598  0.87527711    -0.86110
O642        O  0.37463767  0.00000569  0.93556448    -0.87170
O643        O  0.12007036  0.00132911  0.92520648    -0.86330
O644        O  0.43346376  0.87810962  0.50368462    -0.86730
O645        O  0.42983779  0.62026104  0.99793968    -0.86450
O646        O  0.06945035  0.62153747  0.99543223    -0.86100
O647        O  0.07571804  0.88245737  0.49857294    -0.86510
O648        O  0.49715159  0.92714106  0.87947062    -0.86800
O649        O  0.49455481  0.56593811  0.87541645    -0.88140
Zr650      Zr  0.50341075  0.91397411  0.50135012     2.83100
Zr651      Zr  0.49977037  0.58594721  0.99742431     2.83500
Zr652      Zr  0.41426797  0.99896491  0.00212428     2.84090
Zr653      Zr  0.08786767  0.00226628  0.99642789     2.83360
Zr654      Zr  0.49739528  0.99771880  0.91298290     2.84180
O655        O  0.04172029  0.54281219  0.95332526    -1.08710
O656        O  0.45667243  0.95496654  0.95890056    -1.08210
C657        C  0.49968819  0.88819105  0.89332123     1.06440
C658        C  0.49649265  0.60525333  0.88704211     1.09060
C659        C  0.39361250  0.89001509  0.50229117     1.06620
C660        C  0.11496819  0.89626670  0.49781413     1.06980
C661        C  0.10936723  0.61011862  0.99344056     1.06560
C662        C  0.39036943  0.60779873  0.00030820     1.06110
C663        C  0.38603626  0.99730950  0.89612622     1.06540
C664        C  0.10582338  0.00126930  0.88635785     1.06050
H665        H  0.43667211  0.55913618  0.93874419     0.32730
O666        O  0.45540234  0.54181505  0.95636444    -1.29810
H667        H  0.06193094  0.93949640  0.93745029     0.32750
O668        O  0.04422757  0.95709845  0.95553104    -1.31200
C669        C  0.27399112  0.00507079  0.75134758     0.00420
C670        C  0.23018504  0.00301094  0.74839535     0.00420
C671        C  0.22819024  0.75256548  0.50183235     0.00420
C672        C  0.27213374  0.75045804  0.50089298     0.00420
C673        C  0.29926299  0.78977621  0.50154077    -0.00300
C674        C  0.32619833  0.79526149  0.53695718    -0.12180
C675        C  0.35685811  0.82767853  0.53767148     0.01930
C676        C  0.36056354  0.85622238  0.50289209    -0.00390
C677        C  0.33318659  0.85141518  0.96755506    -0.12120
C678        C  0.30352782  0.81771505  0.96602931     0.01820
H679        H  0.32408033  0.77313432  0.56374410     0.14800
H680        H  0.33649393  0.87272222  0.94027365     0.14800
C681        C  0.28117184  0.81019465  0.92635682     0.36450
C682        C  0.38447154  0.83038098  0.57439179     0.36360
N683        N  0.26398717  0.80414525  0.89412968    -0.43890
N684        N  0.40652605  0.83148081  0.60405680    -0.43890
C685        C  0.35713953  0.64164841  0.99847127    -0.00300
C686        C  0.32400998  0.64259805  0.52905614    -0.12180
C687        C  0.29515672  0.67716542  0.53069377     0.01930
C688        C  0.29726217  0.70978655  0.99919468    -0.00390
C689        C  0.32911394  0.70733719  0.96759126    -0.12120
C690        C  0.35973249  0.67496679  0.96797419     0.01820
H691        H  0.32248939  0.61782185  0.55341055     0.14800
H692        H  0.33170265  0.73246131  0.94369507     0.14800
C693        C  0.39492264  0.67868896  0.93819305     0.36450
C694        C  0.26649893  0.68003068  0.56683682     0.36360
N695        N  0.42353923  0.68335623  0.91506137    -0.43890
N696        N  0.24380037  0.68217762  0.59607377    -0.43890
C697        C  0.14940895  0.86435799  0.49657742    -0.00300
C698        C  0.17386848  0.85631675  0.53343472    -0.12180
C699        C  0.20321757  0.82241338  0.53462217     0.01930
C700        C  0.20580651  0.79452087  0.49943148    -0.00390
C701        C  0.18354419  0.80473932  0.96165624    -0.12120
C702        C  0.15738574  0.84086062  0.95935368     0.01820
H703        H  0.16914958  0.87574828  0.56159337     0.14800
H704        H  0.18679601  0.78449056  0.93390198     0.14800
C705        C  0.14092816  0.85465703  0.91830414     0.36450
C706        C  0.22741588  0.81492650  0.57339078     0.36360
N707        N  0.12839948  0.86621036  0.88531498    -0.43890
N708        N  0.24651496  0.80903502  0.60466821    -0.43890
C709        C  0.14159382  0.64460022  0.99508866    -0.00300
C710        C  0.13510562  0.67653552  0.52523658    -0.12180
C711        C  0.16364498  0.71045600  0.52907633     0.01930
C712        C  0.19949678  0.71403970  0.00115318    -0.00390
C713        C  0.20594345  0.68179881  0.97066176    -0.12120
C714        C  0.17808624  0.64663026  0.96827471     0.01820
H715        H  0.10773012  0.67450369  0.54672604     0.14800
H716        H  0.23239268  0.68428913  0.94822693     0.14800
C717        C  0.18691885  0.61389459  0.93728732     0.36450
C718        C  0.15510685  0.73989945  0.56323105     0.36360
N719        N  0.19410617  0.58760008  0.91253602    -0.43890
N720        N  0.14663937  0.76235569  0.59117961    -0.43890
C721        C  0.35175245  0.99668463  0.86397074    -0.00300
C722        C  0.32522634  0.53248939  0.85826266    -0.12180
C723        C  0.29660969  0.53472053  0.82362161     0.01930
C724        C  0.29650468  0.00172391  0.79316847    -0.00390
C725        C  0.32161351  0.96523251  0.80044921    -0.12120
C726        C  0.34714740  0.96160275  0.83685406     0.01820
H727        H  0.32786557  0.55912768  0.87999435     0.14800
H728        H  0.32030531  0.93903689  0.77805015     0.14800
C729        C  0.36442922  0.92045984  0.84844665     0.36450
C730        C  0.27026584  0.57228043  0.81825922     0.36360
N731        N  0.37603518  0.88701644  0.85915760    -0.43890
N732        N  0.24916070  0.60239703  0.81391758    -0.43890
C733        C  0.13811283  0.00231252  0.85178665    -0.00300
C734        C  0.17200465  0.97279680  0.85265660    -0.12180
C735        C  0.20174633  0.97102988  0.81900517     0.01930
C736        C  0.20135089  0.00304411  0.78678995    -0.00390
C737        C  0.16762533  0.53281150  0.78657442    -0.12120
C738        C  0.13488949  0.53097243  0.81698169     0.01820
H739        H  0.17317563  0.94893504  0.87794771     0.14800
H740        H  0.16527854  0.55590628  0.76063831     0.14800
C741        C  0.09682733  0.55605256  0.80914324     0.36450
C742        C  0.22768800  0.93309818  0.81561509     0.36360
N743        N  0.06584135  0.57476815  0.80087576    -0.43890
N744        N  0.24723453  0.90180370  0.81324356    -0.43890
C745        C  0.14777102  0.49887647  0.63794677    -0.00300
C746        C  0.17883264  0.53125848  0.64027511    -0.12180
C747        C  0.20740204  0.53315170  0.67511343     0.01930
C748        C  0.20679434  0.50057857  0.70669345    -0.00390
C749        C  0.17756125  0.96698255  0.70249392    -0.12120
C750        C  0.14746262  0.96660940  0.66957231     0.01820
H751        H  0.17875044  0.55666470  0.61653175     0.14800
H752        H  0.17646306  0.94214178  0.72685036     0.14800
C753        C  0.11530107  0.93373830  0.67075889     0.36450
C754        C  0.23414919  0.57039059  0.67942666     0.36360
N755        N  0.08952127  0.90741981  0.67347532    -0.43890
N756        N  0.25540548  0.60043471  0.68270055    -0.43890
C757        C  0.36177415  0.50089638  0.64453408    -0.00300
C758        C  0.36682355  0.53152706  0.67627342    -0.12180
C759        C  0.33763187  0.53458307  0.70988473     0.01930
C760        C  0.30291018  0.50545598  0.71308231    -0.00390
C761        C  0.29821607  0.97432594  0.68128736    -0.12120
C762        C  0.32650895  0.97265331  0.64649026     0.01820
H763        H  0.39346506  0.55380150  0.67435712     0.14800
H764        H  0.27286855  0.95078153  0.68392659     0.14800
C765        C  0.31946992  0.94078038  0.61417019     0.36450
C766        C  0.34424783  0.56874950  0.73980700     0.36360
N767        N  0.31343733  0.91541110  0.58819465    -0.43890
N768        N  0.35076967  0.59660092  0.76295955    -0.43890
C769        C  0.49402062  0.70579648  0.79354938    -0.00300
C770        C  0.03341288  0.69018530  0.80908914    -0.12180
C771        C  0.03458379  0.65869883  0.84085214     0.01930
C772        C  0.49644543  0.63775700  0.85285434    -0.00390
C773        C  0.45767423  0.64896089  0.83268692    -0.12120
C774        C  0.45590995  0.68393729  0.80442821     0.01820
H775        H  0.06323174  0.70486705  0.79875112     0.14800
H776        H  0.42834766  0.63224190  0.84122278     0.14800
C777        C  0.41467280  0.69739945  0.78812723     0.36450
C778        C  0.07502853  0.64949520  0.86166753     0.36360
N779        N  0.38131078  0.70768988  0.77529925    -0.43890
N780        N  0.10746665  0.64231164  0.87834975    -0.43890
C781        C  0.49984648  0.85351204  0.86110618    -0.00300
C782        C  0.46977680  0.85430019  0.82773710    -0.12180
C783        C  0.46392177  0.81847250  0.80169900     0.01930
C784        C  0.49630714  0.78671386  0.79962050    -0.00390
C785        C  0.02830214  0.78787747  0.83165847    -0.12120
C786        C  0.02691778  0.81762012  0.86472397     0.01820
H787        H  0.44748451  0.88059637  0.82542748     0.14800
H788        H  0.05279872  0.76377647  0.83364114     0.14800
C789        C  0.04953502  0.80729105  0.90377803     0.36450
C790        C  0.42089780  0.81114018  0.78636903     0.36360
N791        N  0.06583285  0.79733094  0.93561780    -0.43890
N792        N  0.38581865  0.80599111  0.77516001    -0.43890
C793        C  0.50711022  0.86003515  0.64445193    -0.00300
C794        C  0.04070834  0.83023181  0.64698765    -0.12180
C795        C  0.03962954  0.79704026  0.67736997     0.01930
C796        C  0.50217689  0.79022243  0.70222805    -0.00390
C797        C  0.46812162  0.81910308  0.69749651    -0.12120
C798        C  0.47192090  0.85579329  0.67232223     0.01820
H799        H  0.06832182  0.83363166  0.62603288     0.14800
H800        H  0.43733696  0.81194397  0.71092648     0.14800
C801        C  0.43784506  0.88706118  0.67372806     0.36450
C802        C  0.07729748  0.77058173  0.68219438     0.36360
N803        N  0.41051729  0.91201570  0.67541163    -0.43890
N804        N  0.10794911  0.74997678  0.68612494    -0.43890
C805        C  0.49827822  0.64333021  0.63975507    -0.00300
C806        C  0.46211292  0.66998110  0.64153210    -0.12180
C807        C  0.45942365  0.70279491  0.67165651     0.01930
C808        C  0.49375060  0.71004367  0.70034775    -0.00390
C809        C  0.02922719  0.68221972  0.69954430    -0.12120
C810        C  0.03176706  0.64917158  0.66961368     0.01820
H811        H  0.43577668  0.66502513  0.61935585     0.14800
H812        H  0.05596778  0.68748602  0.72103928     0.14800
C813        C  0.07025516  0.62343497  0.66834798     0.36450
C814        C  0.42065950  0.72804701  0.67291470     0.36360
N815        N  0.10122932  0.60301469  0.66718376    -0.43890
N816        N  0.38919571  0.74773404  0.67387779    -0.43890
C817        C  0.99551017  0.24967393  0.22701150     0.00420
C818        C  0.49353986  0.24797966  0.27096370     0.00420
O819        O  0.99774888  0.12163399  0.06708354    -0.86640
O820        O  0.00851140  0.37997462  0.07159135    -0.86800
O821        O  0.93396784  0.00170204  0.12147027    -0.88470
O822        O  0.57462926  0.99993108  0.11826703    -0.87230
O823        O  0.62568485  0.00304874  0.06519933    -0.86820
O824        O  0.88001464  0.99759320  0.07150467    -0.88190
O825        O  0.00507124  0.43239290  0.12243374    -0.86670
O826        O  0.00340190  0.07071675  0.12012443    -0.86250
Zr827      Zr  0.00365066  0.00124387  0.08551733     2.84310
O828        O  0.54703026  0.45871738  0.04206580    -1.08230
O829        O  0.95820035  0.04324130  0.04303383    -1.08960
C830        C  0.00005910  0.10967574  0.10679280     1.06470
C831        C  0.00741357  0.39308151  0.11064348     1.06410
C832        C  0.89401101  0.99962229  0.11018873     1.09400
C833        C  0.61388985  0.00089208  0.10482852     1.07180
H834        H  0.94271843  0.43869140  0.06343885     0.32730
O835        O  0.95975925  0.45664068  0.04479742    -1.29180
H836        H  0.56344363  0.06322699  0.05774257     0.32410
O837        O  0.54541139  0.04494635  0.04070123    -1.30860
O838        O  0.00201000  0.37701511  0.43312228    -0.86630
O839        O  0.99902201  0.11864189  0.42601138    -0.88130
O840        O  0.88018100  0.42895470  0.00068585    -0.86710
O841        O  0.62664269  0.43556465  0.99774513    -0.86760
O842        O  0.62306599  0.07134877  0.49233862    -0.86470
O843        O  0.87790615  0.06853345  0.50331590    -0.86270
O844        O  0.92513142  0.49514354  0.38215920    -0.86640
O845        O  0.56583248  0.50024677  0.37527753    -0.86110
O846        O  0.87463891  0.50000674  0.43556387    -0.87170
O847        O  0.62007167  0.50132957  0.42520717    -0.86330
O848        O  0.93346591  0.37810843  0.00368468    -0.86730
O849        O  0.92983722  0.12026194  0.49794002    -0.86450
O850        O  0.56944965  0.12153779  0.49543223    -0.86100
O851        O  0.57571997  0.38245735  0.99857324    -0.86510
O852        O  0.99715308  0.42714163  0.37947053    -0.86800
O853        O  0.99455319  0.06593856  0.37541636    -0.88140
Zr854      Zr  0.00341256  0.41397361  0.00135023     2.83100
Zr855      Zr  0.99976952  0.08594772  0.49742421     2.83500
Zr856      Zr  0.91426860  0.49896570  0.50212394     2.84090
Zr857      Zr  0.58786829  0.50226666  0.49642834     2.83360
Zr858      Zr  0.99739656  0.49771936  0.41298293     2.84180
O859        O  0.54171898  0.04281249  0.45332494    -1.08710
O860        O  0.95667313  0.45496726  0.45890031    -1.08210
C861        C  0.99968939  0.38819158  0.39332108     1.06440
C862        C  0.99649135  0.10525376  0.38704203     1.09060
C863        C  0.89361457  0.39001362  0.00229113     1.06620
C864        C  0.61497006  0.39626684  0.99781462     1.06980
C865        C  0.60936650  0.11011882  0.49344057     1.06560
C866        C  0.89036883  0.10779984  0.50030874     1.06110
C867        C  0.88603776  0.49731052  0.39612569     1.06540
C868        C  0.60582493  0.50127001  0.38635845     1.06050
H869        H  0.93667079  0.05913711  0.43874428     0.32730
O870        O  0.95540101  0.04181588  0.45636445    -1.29810
H871        H  0.56193176  0.43949679  0.43745067     0.32750
O872        O  0.54422831  0.45709883  0.45553136    -1.31200
C873        C  0.77399249  0.50507167  0.25134733     0.00420
C874        C  0.73018640  0.50301178  0.24839554     0.00420
C875        C  0.72819064  0.25256495  0.00183221     0.00420
C876        C  0.77213415  0.25045732  0.00089308     0.00420
C877        C  0.79926403  0.28977523  0.00154099    -0.00300
C878        C  0.82620091  0.29525914  0.03695654    -0.12180
C879        C  0.85686150  0.32767551  0.03767049     0.01930
C880        C  0.86056568  0.35622069  0.00289202    -0.00390
C881        C  0.83318654  0.35141567  0.46755479    -0.12120
C882        C  0.80352752  0.31771567  0.46602940     0.01820
H883        H  0.82408367  0.27313120  0.06374288     0.14800
H884        H  0.83649426  0.37272220  0.44027303     0.14800
C885        C  0.78117161  0.31019490  0.42635695     0.36450
C886        C  0.88447750  0.33037545  0.07438913     0.36360
N887        N  0.76398696  0.30414520  0.39412986    -0.43890
N888        N  0.90653442  0.33147303  0.10405249    -0.43890
C889        C  0.85713914  0.14164963  0.49847202    -0.00300
C890        C  0.82400955  0.14259725  0.02905648    -0.12180
C891        C  0.79515650  0.17716476  0.03069405     0.01930
C892        C  0.79726185  0.20978765  0.49919548    -0.00390
C893        C  0.82911356  0.20733833  0.46759201    -0.12120
C894        C  0.85973211  0.17496798  0.46797493     0.01820
H895        H  0.82248903  0.11782125  0.05341110     0.14800
H896        H  0.83170219  0.23246240  0.44369577     0.14800
C897        C  0.89492225  0.17869018  0.43819378     0.36450
C898        C  0.76649887  0.18003044  0.06683719     0.36360
N899        N  0.92353883  0.18335748  0.41506209    -0.43890
N900        N  0.74380041  0.18217777  0.09607418    -0.43890
C901        C  0.64941080  0.36435823  0.99657768    -0.00300
C902        C  0.67387045  0.35631679  0.03343486    -0.12180
C903        C  0.70321906  0.32241303  0.03462217     0.01930
C904        C  0.70580733  0.29452046  0.99943150    -0.00390
C905        C  0.68354400  0.30473978  0.46165693    -0.12120
C906        C  0.65738571  0.34086114  0.45935433     0.01820
H907        H  0.66915190  0.37574837  0.06159353     0.14800
H908        H  0.68679593  0.28449108  0.43390263     0.14800
C909        C  0.64092828  0.35465769  0.41830477     0.36450
C910        C  0.72741752  0.31492577  0.07339063     0.36360
N911        N  0.62839970  0.36621114  0.38531562    -0.43890
N912        N  0.74651683  0.30903391  0.10466785    -0.43890
C913        C  0.64159325  0.14460039  0.49508895    -0.00300
C914        C  0.63510510  0.17653566  0.02523598    -0.12180
C915        C  0.66364472  0.21045597  0.02907579     0.01930
C916        C  0.69949632  0.21403995  0.50115388    -0.00390
C917        C  0.70594324  0.18179892  0.47066263    -0.12120
C918        C  0.67808595  0.14663039  0.46827535     0.01820
H919        H  0.60772942  0.17450414  0.04672524     0.14800
H920        H  0.73239266  0.18428915  0.44822803     0.14800
C921        C  0.68691873  0.11389472  0.43728802     0.36450
C922        C  0.65510658  0.23989967  0.06323031     0.36360
N923        N  0.69410618  0.08760020  0.41253677    -0.43890
N924        N  0.64663916  0.26235616  0.09117869    -0.43890
C925        C  0.85175419  0.49668578  0.36397009    -0.00300
C926        C  0.82522415  0.03248970  0.35826288    -0.12180
C927        C  0.79660767  0.03472047  0.32362166     0.01930
C928        C  0.79650637  0.50172501  0.29316798    -0.00390
C929        C  0.82161515  0.46523358  0.30044871    -0.12120
C930        C  0.84714911  0.46160386  0.33685348     0.01820
H931        H  0.82786317  0.05912816  0.37999438     0.14800
H932        H  0.82030682  0.43903790  0.27804973     0.14800
C933        C  0.86443108  0.42046100  0.34844604     0.36450
C934        C  0.77026362  0.07228018  0.31825887     0.36360
N935        N  0.87603725  0.38701767  0.35915700    -0.43890
N936        N  0.74915829  0.10239660  0.31391691    -0.43890
C937        C  0.63811460  0.50231348  0.35178736    -0.00300
C938        C  0.67200642  0.47279775  0.35265718    -0.12180
C939        C  0.70174809  0.47103089  0.31900569     0.01930
C940        C  0.70135257  0.50304511  0.28679044    -0.00390
C941        C  0.66762334  0.03281069  0.28657339    -0.12120
C942        C  0.63488738  0.03097175  0.31698057     0.01820
H943        H  0.67317739  0.44893589  0.37794820     0.14800
H944        H  0.66527652  0.05590523  0.26063705     0.14800
C945        C  0.59682511  0.05605166  0.30914181     0.36450
C946        C  0.72768985  0.43309925  0.31561561     0.36360
N947        N  0.56583907  0.07476711  0.30087418    -0.43890
N948        N  0.74723646  0.40180482  0.31324411    -0.43890
C949        C  0.64777067  0.99887568  0.13794609    -0.00300
C950        C  0.67883211  0.03125782  0.14027464    -0.12180
C951        C  0.70740132  0.03315105  0.17511307     0.01930
C952        C  0.70679358  0.00057783  0.20669299    -0.00390
C953        C  0.67756215  0.46698331  0.20249473    -0.12120
C954        C  0.64746344  0.46660998  0.16957321     0.01820
H955        H  0.67874984  0.05666416  0.11653139     0.14800
H956        H  0.67646391  0.44214278  0.22685142     0.14800
C957        C  0.61530168  0.43373909  0.17076026     0.36450
C958        C  0.73414825  0.07039006  0.17942660     0.36360
N959        N  0.58952170  0.40742081  0.17347713    -0.43890
N960        N  0.75540437  0.10043427  0.18270073    -0.43890
C961        C  0.86177371  0.00089533  0.14453463    -0.00300
C962        C  0.86682275  0.03152625  0.17627382    -0.12180
C963        C  0.83763084  0.03458234  0.20988496     0.01930
C964        C  0.80290923  0.00545516  0.21308255    -0.00390
C965        C  0.79821735  0.47432579  0.18128755    -0.12120
C966        C  0.82651038  0.47265252  0.14649059     0.01820
H967        H  0.89346413  0.05380083  0.17435749     0.14800
H968        H  0.77287000  0.45078124  0.18392732     0.14800
C969        C  0.81947219  0.44077834  0.11417157     0.36450
C970        C  0.84424641  0.06874902  0.23980704     0.36360
N971        N  0.81344049  0.41540792  0.08819695    -0.43890
N972        N  0.85076789  0.09660062  0.26295946    -0.43890
C973        C  0.99402039  0.20579690  0.29354943    -0.00300
C974        C  0.53341247  0.19018504  0.30908888    -0.12180
C975        C  0.53458307  0.15869841  0.34085171     0.01930
C976        C  0.99644440  0.13775739  0.35285428    -0.00390
C977        C  0.95767320  0.14896209  0.33268732    -0.12120
C978        C  0.95590937  0.18393849  0.30442860     0.01820
H979        H  0.56323149  0.20486643  0.29875079     0.14800
H980        H  0.92834637  0.13224370  0.34122347     0.14800
C981        C  0.91467235  0.19740151  0.28812800     0.36450
C982        C  0.57502784  0.14949380  0.36166663     0.36360
N983        N  0.88131044  0.20769266  0.27530031    -0.43890
N984        N  0.60746596  0.14230939  0.37834849    -0.43890
C985        C  0.99984773  0.35351260  0.36110591    -0.00300
C986        C  0.96977854  0.35430125  0.32773641    -0.12180
C987        C  0.96392320  0.31847365  0.30169821     0.01930
C988        C  0.99630791  0.28671428  0.29962026    -0.00390
C989        C  0.52830245  0.28787735  0.33165871    -0.12120
C990        C  0.52691835  0.31762022  0.36472406     0.01820
H991        H  0.94748669  0.38059779  0.32542651     0.14800
H992        H  0.55279846  0.26377580  0.33364179     0.14800
C993        C  0.54953538  0.30729108  0.40377823     0.36450
C994        C  0.92089928  0.31114227  0.28636768     0.36360
N995        N  0.56583310  0.29733097  0.43561805    -0.43890
N996        N  0.88582009  0.30599400  0.27515837    -0.43890
C997        C  0.00711186  0.36003481  0.14445191    -0.00300
C998        C  0.54071030  0.33023193  0.14698854    -0.12180
C999        C  0.53963099  0.29704023  0.17737069     0.01930
C1000       C  0.00217784  0.29022216  0.20222789    -0.00390
C1001       C  0.96812231  0.31910231  0.19749539    -0.12120
C1002       C  0.97192168  0.35579240  0.17232104     0.01820
H1003       H  0.56832427  0.33363208  0.12603446     0.14800
H1004       H  0.93733740  0.31194276  0.21092462     0.14800
C1005       C  0.93784485  0.38705930  0.17372509     0.36450
C1006       C  0.57729878  0.27058157  0.18219558     0.36360
N1007       N  0.91051626  0.41201303  0.17540725    -0.43890
N1008       N  0.60795025  0.24997644  0.18612643    -0.43890
C1009       C  0.99827817  0.14332985  0.13975507    -0.00300
C1010       C  0.96211313  0.16998109  0.14153195    -0.12180
C1011       C  0.95942400  0.20279490  0.17165639     0.01930
C1012       C  0.99375094  0.21004349  0.20034772    -0.00390
C1013       C  0.52922729  0.18221925  0.19954437    -0.12120
C1014       C  0.53176690  0.14917095  0.16961387     0.01820
H1015       H  0.93577692  0.16502533  0.11935562     0.14800
H1016       H  0.55596788  0.18748537  0.22103938     0.14800
C1017       C  0.57025460  0.12343372  0.16834862     0.36450
C1018       C  0.92065991  0.22804709  0.17291454     0.36360
N1019       N  0.60122841  0.10301290  0.16718482    -0.43890
N1020       N  0.88919611  0.24773410  0.17387754    -0.43890
C1021       C  0.99551002  0.24967409  0.72701157     0.00420
C1022       C  0.49354003  0.24797946  0.77096377     0.00420
O1023       O  0.99774876  0.12163448  0.56708349    -0.86640
O1024       O  0.00851043  0.37997507  0.57159139    -0.86800
O1025       O  0.93396749  0.00170266  0.62147018    -0.88470
O1026       O  0.57462892  0.99993144  0.61826706    -0.87230
O1027       O  0.62568452  0.00304899  0.56519937    -0.86820
O1028       O  0.88001428  0.99759430  0.57150456    -0.88190
O1029       O  0.00507067  0.43239335  0.62243380    -0.86670
O1030       O  0.00340158  0.07071719  0.62012436    -0.86250
Zr1031     Zr  0.00365030  0.00124432  0.58551731     2.84310
O1032       O  0.54702969  0.45871771  0.54206572    -1.08230
O1033       O  0.95820015  0.04324197  0.54303385    -1.08960
C1034       C  0.00005887  0.10967619  0.60679273     1.06470
C1035       C  0.00741279  0.39308195  0.61064355     1.06410
C1036       C  0.89401066  0.99962315  0.61018862     1.09400
C1037       C  0.61388952  0.00089240  0.60482857     1.07180
H1038       H  0.94271776  0.43869215  0.56343878     0.32730
O1039       O  0.95975866  0.45664136  0.54479736    -1.29180
H1040       H  0.56344344  0.06322730  0.55774259     0.32410
O1041       O  0.54541116  0.04494671  0.54070125    -1.30860
O1042       O  0.00201082  0.37701459  0.93312244    -0.86630
O1043       O  0.99902217  0.11864136  0.92601129    -0.88130
O1044       O  0.88018011  0.42895594  0.50068576    -0.86710
O1045       O  0.62664196  0.43556475  0.49774515    -0.86760
O1046       O  0.62306611  0.07134860  0.99233854    -0.86470
O1047       O  0.87790623  0.06853236  0.00331583    -0.86270
O1048       O  0.92513165  0.49514280  0.88215921    -0.86640
O1049       O  0.56583269  0.50024629  0.87527757    -0.86110
O1050       O  0.87463918  0.50000562  0.93556394    -0.87170
O1051       O  0.62007192  0.50132929  0.92520718    -0.86330
O1052       O  0.93346477  0.37810940  0.50368456    -0.86730
O1053       O  0.92983712  0.12026104  0.99793993    -0.86450
O1054       O  0.56944967  0.12153750  0.99543216    -0.86100
O1055       O  0.57571906  0.38245760  0.49857328    -0.86510
O1056       O  0.99715349  0.42714109  0.87947070    -0.86800
O1057       O  0.99455337  0.06593801  0.87541629    -0.88140
Zr1058     Zr  0.00341176  0.41397408  0.50135017     2.83100
Zr1059     Zr  0.99976961  0.08594721  0.99742420     2.83500
Zr1060     Zr  0.91426895  0.49896476  0.00212401     2.84090
Zr1061     Zr  0.58786864  0.50226639  0.99642834     2.83360
Zr1062     Zr  0.99739681  0.49771883  0.91298297     2.84180
O1063       O  0.54171915  0.04281207  0.95332495    -1.08710
O1064       O  0.95667367  0.45496652  0.95890039    -1.08210
C1065       C  0.99968999  0.38819105  0.89332126     1.06440
C1066       C  0.99649154  0.10525323  0.88704192     1.09060
C1067       C  0.89361348  0.39001481  0.50229101     1.06620
C1068       C  0.61496918  0.39626699  0.49781468     1.06980
C1069       C  0.60936655  0.11011861  0.99344045     1.06560
C1070       C  0.89036877  0.10779879  0.00030861     1.06110
C1071       C  0.88603798  0.49730958  0.89612573     1.06540
C1072       C  0.60582513  0.50126963  0.88635848     1.06050
H1073       H  0.93667090  0.05913632  0.93874435     0.32730
O1074       O  0.95540119  0.04181517  0.95636453    -1.29810
H1075       H  0.56193232  0.43949647  0.93745064     0.32750
O1076       O  0.54422882  0.45709847  0.95553133    -1.31200
C1077       C  0.77399245  0.50507152  0.75134743     0.00420
C1078       C  0.73018635  0.50301164  0.74839558     0.00420
C1079       C  0.72819018  0.25256543  0.50183265     0.00420
C1080       C  0.77213369  0.25045812  0.50089335     0.00420
C1081       C  0.79926316  0.28977628  0.50154110    -0.00300
C1082       C  0.82619906  0.29526119  0.53695718    -0.12180
C1083       C  0.85685927  0.32767791  0.53767122     0.01930
C1084       C  0.86056443  0.35622205  0.50289201    -0.00390
C1085       C  0.83318694  0.35141522  0.96755533    -0.12120
C1086       C  0.80352790  0.31771527  0.96602974     0.01820
H1087       H  0.82408126  0.27313388  0.56374400     0.14800
H1088       H  0.83649410  0.37272238  0.94027398     0.14800
C1089       C  0.78117163  0.31019513  0.92635736     0.36450
C1090       C  0.88447357  0.33037958  0.57439095     0.36360
N1091       N  0.76398677  0.30414595  0.89413028    -0.43890
N1092       N  0.90652890  0.33147870  0.60405539    -0.43890
C1093       C  0.85713899  0.14164846  0.99847171    -0.00300
C1094       C  0.82400963  0.14259827  0.52905673    -0.12180
C1095       C  0.79515648  0.17716570  0.53069434     0.01930
C1096       C  0.79726193  0.20978664  0.99919511    -0.00390
C1097       C  0.82911346  0.20733710  0.96759151    -0.12120
C1098       C  0.85973191  0.17496667  0.96797445     0.01820
H1099       H  0.82248909  0.11782217  0.55341125     0.14800
H1100       H  0.83170209  0.23246112  0.94369521     0.14800
C1101       C  0.89492199  0.17868871  0.93819321     0.36450
C1102       C  0.76649880  0.18003121  0.56683747     0.36360
N1103       N  0.92353853  0.18335592  0.91506148    -0.43890
N1104       N  0.74380030  0.18217841  0.59607444    -0.43890
C1105       C  0.64940985  0.36435833  0.49657789    -0.00300
C1106       C  0.67386926  0.35631689  0.53343522    -0.12180
C1107       C  0.70321801  0.32241327  0.53462264     0.01930
C1108       C  0.70580666  0.29452082  0.49943190    -0.00390
C1109       C  0.68354440  0.30473939  0.96165667    -0.12120
C1110       C  0.65738631  0.34086089  0.95935414     0.01820
H1111       H  0.66915045  0.37574839  0.56159390     0.14800
H1112       H  0.68679601  0.28449059  0.93390242     0.14800
C1113       C  0.64092874  0.35465744  0.91830463     0.36450
C1114       C  0.72741618  0.31492602  0.57339128     0.36360
N1115       N  0.62840005  0.36621089  0.88531553    -0.43890
N1116       N  0.74651519  0.30903420  0.60466869    -0.43890
C1117       C  0.64159327  0.14460022  0.99508865    -0.00300
C1118       C  0.63510497  0.17653573  0.52523633    -0.12180
C1119       C  0.66364445  0.21045615  0.52907621     0.01930
C1120       C  0.69949657  0.21403962  0.00115342    -0.00390
C1121       C  0.70594333  0.18179855  0.97066218    -0.12120
C1122       C  0.67808595  0.14663008  0.96827501     0.01820
H1123       H  0.60772926  0.17450411  0.54672556     0.14800
H1124       H  0.73239273  0.18428867  0.94822754     0.14800
C1125       C  0.68691868  0.11389430  0.93728778     0.36450
C1126       C  0.65510605  0.23989980  0.56323069     0.36360
N1127       N  0.69410608  0.08759967  0.91253663    -0.43890
N1128       N  0.64663834  0.26235623  0.59117903    -0.43890
C1129       C  0.85175434  0.49668497  0.86397014    -0.00300
C1130       C  0.82522428  0.03248891  0.85826314    -0.12180
C1131       C  0.79660772  0.03471987  0.82362198     0.01930
C1132       C  0.79650636  0.50172458  0.79316810    -0.00390
C1133       C  0.82161514  0.46523311  0.80044862    -0.12120
C1134       C  0.84714916  0.46160319  0.83685336     0.01820
H1135       H  0.82786336  0.05912726  0.87999477     0.14800
H1136       H  0.82030676  0.43903754  0.77804951     0.14800
C1137       C  0.86443095  0.42046021  0.84844578     0.36450
C1138       C  0.77026368  0.07227962  0.81825946     0.36360
N1139       N  0.87603692  0.38701678  0.85915662    -0.43890
N1140       N  0.74915836  0.10239608  0.81391772    -0.43890
C1141       C  0.63811473  0.50231312  0.85178739    -0.00300
C1142       C  0.67200649  0.47279731  0.85265710    -0.12180
C1143       C  0.70174809  0.47103051  0.81900557     0.01930
C1144       C  0.70135259  0.50304486  0.78679047    -0.00390
C1145       C  0.66762343  0.03281053  0.78657355    -0.12120
C1146       C  0.63488749  0.03097150  0.81698071     0.01820
H1147       H  0.67317744  0.44893538  0.87794805     0.14800
H1148       H  0.66527664  0.05590517  0.76063730     0.14800
C1149       C  0.59682519  0.05605138  0.80914199     0.36450
C1150       C  0.72768976  0.43309883  0.81561530     0.36360
N1151       N  0.56583912  0.07476677  0.80087437    -0.43890
N1152       N  0.74723631  0.40180437  0.81324362    -0.43890
C1153       C  0.64777036  0.99887596  0.63794616    -0.00300
C1154       C  0.67883181  0.03125809  0.64027481    -0.12180
C1155       C  0.70740109  0.03315120  0.67511322     0.01930
C1156       C  0.70679341  0.00057788  0.70669303    -0.00390
C1157       C  0.67756192  0.46698340  0.70249470    -0.12120
C1158       C  0.64746316  0.46661018  0.66957320     0.01820
H1159       H  0.67874953  0.05666450  0.61653163     0.14800
H1160       H  0.67646369  0.44214279  0.72685131     0.14800
C1161       C  0.61530142  0.43373925  0.67076013     0.36450
C1162       C  0.73414808  0.07039016  0.67942681     0.36360
N1163       N  0.58952147  0.40742092  0.67347682    -0.43890
N1164       N  0.75540427  0.10043432  0.68270101    -0.43890
C1165       C  0.86177338  0.00089607  0.64453452    -0.00300
C1166       C  0.86682276  0.03152647  0.67627415    -0.12180
C1167       C  0.83763094  0.03458233  0.70988538     0.01930
C1168       C  0.80290917  0.00545530  0.71308266    -0.00390
C1169       C  0.79821698  0.47432642  0.68128722    -0.12120
C1170       C  0.82650980  0.47265355  0.64649009     0.01820
H1171       H  0.89346431  0.05380088  0.67435809     0.14800
H1172       H  0.77286950  0.45078198  0.68392671     0.14800
C1173       C  0.81947092  0.44078024  0.61417036     0.36450
C1174       C  0.84424678  0.06874861  0.73980785     0.36360
N1175       N  0.81343852  0.41541063  0.58819511    -0.43890
N1176       N  0.85076848  0.09659991  0.76296058    -0.43890
C1177       C  0.99402063  0.20579654  0.79354932    -0.00300
C1178       C  0.53341271  0.19018472  0.80908887    -0.12180
C1179       C  0.53458328  0.15869806  0.84085169     0.01930
C1180       C  0.99644464  0.13775688  0.85285412    -0.00390
C1181       C  0.95767351  0.14896144  0.83268692    -0.12120
C1182       C  0.95590966  0.18393791  0.80442827     0.01820
H1183       H  0.56323173  0.20486614  0.79875084     0.14800
H1184       H  0.92834672  0.13224289  0.84122288     0.14800
C1185       C  0.91467265  0.19740079  0.78812754     0.36450
C1186       C  0.57502802  0.14949353  0.86166671     0.36360
N1187       N  0.88131074  0.20769181  0.77529976    -0.43890
N1188       N  0.60746612  0.14230918  0.87834864    -0.43890
C1189       C  0.99984822  0.35351210  0.86110613    -0.00300
C1190       C  0.96977874  0.35430069  0.82773689    -0.12180
C1191       C  0.96392329  0.31847310  0.80169875     0.01930
C1192       C  0.99630813  0.28671390  0.79962049    -0.00390
C1193       C  0.52830293  0.28787699  0.83165867    -0.12120
C1194       C  0.52691895  0.31761977  0.86472409     0.01820
H1195       H  0.94748681  0.38059717  0.82542720     0.14800
H1196       H  0.55279905  0.26377554  0.83364152     0.14800
C1197       C  0.54953612  0.30729055  0.90377816     0.36450
C1198       C  0.92089927  0.31114149  0.78636862     0.36360
N1199       N  0.56583394  0.29733034  0.93561790    -0.43890
N1200       N  0.88582003  0.30599304  0.77515958    -0.43890
C1201       C  0.00711127  0.36003522  0.64445203    -0.00300
C1202       C  0.54070955  0.33023212  0.64698822    -0.12180
C1203       C  0.53963048  0.29704047  0.67737046     0.01930
C1204       C  0.00217757  0.29022249  0.70222807    -0.00390
C1205       C  0.96812220  0.31910294  0.69749608    -0.12120
C1206       C  0.97192157  0.35579314  0.67232183     0.01820
H1207       H  0.56832329  0.33363214  0.62603382     0.14800
H1208       H  0.93733741  0.31194365  0.71092569     0.14800
C1209       C  0.93784542  0.38706072  0.67372702     0.36450
C1210       C  0.57729834  0.27058189  0.68219515     0.36360
N1211       N  0.91051741  0.41201501  0.67541008    -0.43890
N1212       N  0.60794989  0.24997685  0.68612591    -0.43890
C1213       C  0.99827796  0.14333027  0.63975498    -0.00300
C1214       C  0.96211285  0.16998140  0.64153200    -0.12180
C1215       C  0.95942378  0.20279521  0.67165644     0.01930
C1216       C  0.99375081  0.21004379  0.70034765    -0.00390
C1217       C  0.52922723  0.18221965  0.69954415    -0.12120
C1218       C  0.53176683  0.14917143  0.66961359     0.01820
H1219       H  0.93577656  0.16502559  0.61935577     0.14800
H1220       H  0.55596788  0.18748580  0.72103909     0.14800
C1221       C  0.57025468  0.12343444  0.66834801     0.36450
C1222       C  0.92065973  0.22804745  0.67291470     0.36360
N1223       N  0.60122862  0.10301382  0.66718392    -0.43890
N1224       N  0.88919598  0.24773454  0.67387780    -0.43890
C1225       C  0.99550968  0.74967386  0.22701155     0.00420
C1226       C  0.49353932  0.74797958  0.27096373     0.00420
O1227       O  0.99774942  0.62163397  0.06708364    -0.86640
O1228       O  0.00851028  0.87997461  0.07159128    -0.86800
O1229       O  0.93396858  0.50170205  0.12147002    -0.88470
O1230       O  0.57462993  0.49993131  0.11826740    -0.87230
O1231       O  0.62568567  0.50304907  0.06519987    -0.86820
O1232       O  0.88001547  0.49759317  0.07150431    -0.88190
O1233       O  0.00507021  0.93239286  0.12243369    -0.86670
O1234       O  0.00340248  0.57071673  0.12012452    -0.86250
Zr1235     Zr  0.00365146  0.50124388  0.08551738     2.84310
O1236       O  0.54702937  0.95871739  0.04206560    -1.08230
O1237       O  0.95820112  0.54324118  0.04303377    -1.08960
C1238       C  0.00005959  0.60967571  0.10679290     1.06470
C1239       C  0.00741245  0.89308147  0.11064341     1.06410
C1240       C  0.89401179  0.49962234  0.11018838     1.09400
C1241       C  0.61389057  0.50089242  0.10482903     1.07180
H1242       H  0.94271756  0.93869145  0.06343894     0.32730
O1243       O  0.95975835  0.95664071  0.04479748    -1.29180
H1244       H  0.56344435  0.56322717  0.05774285     0.32410
O1245       O  0.54541219  0.54494649  0.04070147    -1.30860
O1246       O  0.00200843  0.87701516  0.43312225    -0.86630
O1247       O  0.99902288  0.61864199  0.42601157    -0.88130
O1248       O  0.88018001  0.92895495  0.00068611    -0.86710
O1249       O  0.62664169  0.93556440  0.99774446    -0.86760
O1250       O  0.62306679  0.57134884  0.49233891    -0.86470
O1251       O  0.87790693  0.56853332  0.50331545    -0.86270
O1252       O  0.92512965  0.99514347  0.38215954    -0.86640
O1253       O  0.56583069  0.00024645  0.37527707    -0.86110
O1254       O  0.87463740  0.00000681  0.43556441    -0.87170
O1255       O  0.62007011  0.00132936  0.42520648    -0.86330
O1256       O  0.93346492  0.87810864  0.00368473    -0.86730
O1257       O  0.92983788  0.62026193  0.49793977    -0.86450
O1258       O  0.56945033  0.62153776  0.49543230    -0.86100
O1259       O  0.57571895  0.88245713  0.99857290    -0.86510
O1260       O  0.99715117  0.92714161  0.37947046    -0.86800
O1261       O  0.99455462  0.56593865  0.37541652    -0.88140
Zr1262     Zr  0.00341158  0.91397362  0.00135017     2.83100
Zr1263     Zr  0.99977027  0.58594771  0.49742431     2.83500
Zr1264     Zr  0.91426762  0.99896585  0.50212421     2.84090
Zr1265     Zr  0.58786731  0.00226654  0.49642790     2.83360
Zr1266     Zr  0.99739503  0.99771933  0.41298286     2.84180
O1267       O  0.54172012  0.54281262  0.45332524    -1.08710
O1268       O  0.95667189  0.95496729  0.45890049    -1.08210
C1269       C  0.99968757  0.88819158  0.39332105     1.06440
C1270       C  0.99649245  0.60525386  0.38704221     1.09060
C1271       C  0.89361361  0.89001389  0.00229127     1.06620
C1272       C  0.61496907  0.89626657  0.99781408     1.06980
C1273       C  0.60936718  0.61011882  0.49344070     1.06560
C1274       C  0.89036948  0.60779977  0.50030834     1.06110
C1275       C  0.88603604  0.99731044  0.39612618     1.06540
C1276       C  0.60582318  0.00126966  0.38635782     1.06050
H1277       H  0.93667199  0.55913696  0.43874412     0.32730
O1278       O  0.95540216  0.54181575  0.45636436    -1.29810
H1279       H  0.56193038  0.93949671  0.43745033     0.32750
O1280       O  0.54422705  0.95709881  0.45553108    -1.31200
C1281       C  0.77399116  0.00507093  0.25134748     0.00420
C1282       C  0.73018509  0.00301106  0.24839531     0.00420
C1283       C  0.72819069  0.75256499  0.00183191     0.00420
C1284       C  0.77213420  0.75045724  0.00089271     0.00420
C1285       C  0.79926385  0.78977516  0.00154066    -0.00300
C1286       C  0.82620016  0.79525944  0.03695653    -0.12180
C1287       C  0.85686035  0.82767612  0.03767075     0.01930
C1288       C  0.86056481  0.85622101  0.00289209    -0.00390
C1289       C  0.83318617  0.85141564  0.46755456    -0.12120
C1290       C  0.80352742  0.81771547  0.46602902     0.01820
H1291       H  0.82408271  0.77313165  0.06374299     0.14800
H1292       H  0.83649403  0.87272207  0.44027275     0.14800
C1293       C  0.78117177  0.81019445  0.42635646     0.36450
C1294       C  0.88447547  0.83037686  0.07438998     0.36360
N1295       N  0.76398728  0.80414454  0.39412933    -0.43890
N1296       N  0.90653155  0.83147514  0.10405391    -0.43890
C1297       C  0.85713967  0.64164956  0.49847159    -0.00300
C1298       C  0.82400991  0.64259704  0.02905588    -0.12180
C1299       C  0.79515673  0.67716449  0.03069347     0.01930
C1300       C  0.79726210  0.70978756  0.49919509    -0.00390
C1301       C  0.82911404  0.70733842  0.46759179    -0.12120
C1302       C  0.85973268  0.67496809  0.46797469     0.01820
H1303       H  0.82248933  0.61782093  0.05341040     0.14800
H1304       H  0.83170274  0.73246258  0.44369566     0.14800
C1305       C  0.89492289  0.67869042  0.43819362     0.36450
C1306       C  0.76649898  0.68002990  0.06683654     0.36360
N1307       N  0.92353951  0.68335778  0.41506198    -0.43890
N1308       N  0.74380046  0.68217698  0.09607350    -0.43890
C1309       C  0.64940990  0.86435790  0.99657720    -0.00300
C1310       C  0.67386967  0.85631665  0.03343436    -0.12180
C1311       C  0.70321862  0.82241314  0.03462170     0.01930
C1312       C  0.70580719  0.79452051  0.99943108    -0.00390
C1313       C  0.68354373  0.80473965  0.46165652    -0.12120
C1314       C  0.65738506  0.84086078  0.45935390     0.01820
H1315       H  0.66915102  0.87574825  0.06159300     0.14800
H1316       H  0.68679585  0.78449097  0.43390224     0.14800
C1317       C  0.64092758  0.85465715  0.41830430     0.36450
C1318       C  0.72741721  0.81492624  0.07339014     0.36360
N1319       N  0.62839897  0.86621045  0.38531511    -0.43890
N1320       N  0.74651659  0.80903471  0.10466738    -0.43890
C1321       C  0.64159380  0.64460038  0.49508898    -0.00300
C1322       C  0.63510575  0.67653545  0.02523621    -0.12180
C1323       C  0.66364526  0.71045583  0.02907591     0.01930
C1324       C  0.69949654  0.71404001  0.50115368    -0.00390
C1325       C  0.70594337  0.68179917  0.47066223    -0.12120
C1326       C  0.67808624  0.64663056  0.46827507     0.01820
H1327       H  0.60773027  0.67450372  0.04672571     0.14800
H1328       H  0.73239261  0.68428961  0.44822743     0.14800
C1329       C  0.68691889  0.61389503  0.43728756     0.36450
C1330       C  0.65510738  0.73989932  0.06323067     0.36360
N1331       N  0.69410625  0.58760062  0.41253615    -0.43890
N1332       N  0.64664018  0.76235562  0.09117927    -0.43890
C1333       C  0.85175230  0.99668543  0.36397070    -0.00300
C1334       C  0.82522621  0.53249018  0.35826240    -0.12180
C1335       C  0.79660965  0.53472114  0.32362129     0.01930
C1336       C  0.79650469  0.00172432  0.29316835    -0.00390
C1337       C  0.82161351  0.96523297  0.30044930    -0.12120
C1338       C  0.84714735  0.96160342  0.33685419     0.01820
H1339       H  0.82786541  0.55912859  0.37999395     0.14800
H1340       H  0.82030537  0.93903724  0.27805037     0.14800
C1341       C  0.86442935  0.92046062  0.34844692     0.36450
C1342       C  0.77026579  0.57228100  0.31825863     0.36360
N1343       N  0.87603553  0.88701733  0.35915799    -0.43890
N1344       N  0.74916065  0.60239757  0.31391677    -0.43890
C1345       C  0.63811270  0.00231286  0.35178662    -0.00300
C1346       C  0.67200458  0.97279720  0.35265667    -0.12180
C1347       C  0.70174633  0.97103023  0.31900528     0.01930
C1348       C  0.70135087  0.00304433  0.28678992    -0.00390
C1349       C  0.66762524  0.53281167  0.28657427    -0.12120
C1350       C  0.63488938  0.53097268  0.31698156     0.01820
H1351       H  0.67317557  0.94893551  0.37794785     0.14800
H1352       H  0.66527843  0.55590635  0.26063807     0.14800
C1353       C  0.59682724  0.55605284  0.30914307     0.36450
C1354       C  0.72768809  0.93309858  0.31561540     0.36360
N1355       N  0.56584130  0.57476848  0.30087557    -0.43890
N1356       N  0.74723468  0.90180412  0.31324403    -0.43890
C1357       C  0.64777133  0.49887619  0.13794670    -0.00300
C1358       C  0.67883293  0.53125821  0.14027495    -0.12180
C1359       C  0.70740226  0.53315156  0.17511329     0.01930
C1360       C  0.70679450  0.50057853  0.20669341    -0.00390
C1361       C  0.67756147  0.96698246  0.20249395    -0.12120
C1362       C  0.64746289  0.96660921  0.16957233     0.01820
H1363       H  0.67875074  0.55666437  0.11653151     0.14800
H1364       H  0.67646326  0.94214177  0.22685048     0.14800
C1365       C  0.61530129  0.93373817  0.17075905     0.36450
C1366       C  0.73414935  0.57039050  0.17942646     0.36360
N1367       N  0.58952145  0.90741973  0.17347567    -0.43890
N1368       N  0.75540558  0.60043467  0.18270028    -0.43890
C1369       C  0.86177448  0.50089565  0.14453421    -0.00300
C1370       C  0.86682354  0.53152684  0.17627310    -0.12180
C1371       C  0.83763176  0.53458309  0.20988431     0.01930
C1372       C  0.80291024  0.50545585  0.21308220    -0.00390
C1373       C  0.79821643  0.97432530  0.18128768    -0.12120
C1374       C  0.82650953  0.97265227  0.14649074     0.01820
H1375       H  0.89346487  0.55380147  0.17435653     0.14800
H1376       H  0.77286904  0.95078077  0.18392720     0.14800
C1377       C  0.81947118  0.94077847  0.11417138     0.36450
C1378       C  0.84424746  0.56874992  0.23980619     0.36360
N1379       N  0.81343928  0.91540839  0.08819647    -0.43890
N1380       N  0.85076908  0.59660165  0.26295842    -0.43890
C1381       C  0.99402037  0.70579684  0.29354949    -0.00300
C1382       C  0.53341262  0.69018560  0.30908912    -0.12180
C1383       C  0.53458356  0.65869917  0.34085213     0.01930
C1384       C  0.99644518  0.63775751  0.35285450    -0.00390
C1385       C  0.95767390  0.64896155  0.33268732    -0.12120
C1386       C  0.95590964  0.68393787  0.30442854     0.01820
H1387       H  0.56323147  0.70486733  0.29875104     0.14800
H1388       H  0.92834730  0.63224271  0.34122338     0.14800
C1389       C  0.91467249  0.69740018  0.28812770     0.36450
C1390       C  0.57502834  0.64949546  0.36166742     0.36360
N1391       N  0.88131047  0.70769075  0.27529982    -0.43890
N1392       N  0.60746648  0.64231186  0.37834958    -0.43890
C1393       C  0.99984598  0.85351254  0.36110596    -0.00300
C1394       C  0.96977659  0.85430076  0.32773661    -0.12180
C1395       C  0.96392166  0.81847306  0.30169844     0.01930
C1396       C  0.99630690  0.78671423  0.29962029    -0.00390
C1397       C  0.52830158  0.78787777  0.33165857    -0.12120
C1398       C  0.52691709  0.81762052  0.36472400     0.01820
H1399       H  0.94748440  0.88059700  0.32542677     0.14800
H1400       H  0.55279802  0.76377665  0.33364152     0.14800
C1401       C  0.54953413  0.80729151  0.40377819     0.36450
C1402       C  0.92089781  0.81114098  0.28636807     0.36360
N1403       N  0.56583181  0.79733149  0.43561806    -0.43890
N1404       N  0.88581871  0.80599211  0.27515878    -0.43890
C1405       C  0.00711082  0.86003473  0.14445181    -0.00300
C1406       C  0.54070909  0.83023163  0.14698799    -0.12180
C1407       C  0.53963004  0.79704003  0.17737023     0.01930
C1408       C  0.00217716  0.79022210  0.20222788    -0.00390
C1409       C  0.96812173  0.81910244  0.19749581    -0.12120
C1410       C  0.97192101  0.85579255  0.17232144     0.01820
H1411       H  0.56832281  0.83363162  0.12603356     0.14800
H1412       H  0.93733695  0.81194307  0.21092538     0.14800
C1413       C  0.93784449  0.88705975  0.17372612     0.36450
C1414       C  0.57729792  0.77058144  0.18219487     0.36360
N1415       N  0.91051616  0.91201372  0.17540879    -0.43890
N1416       N  0.60794948  0.74997641  0.18612553    -0.43890
C1417       C  0.99827843  0.64332980  0.13975517    -0.00300
C1418       C  0.96211320  0.66998078  0.14153205    -0.12180
C1419       C  0.95942386  0.70279459  0.17165647     0.01930
C1420       C  0.99375073  0.71004337  0.20034782    -0.00390
C1421       C  0.52922724  0.68221934  0.19954451    -0.12120
C1422       C  0.53176712  0.64917111  0.16961395     0.01820
H1423       H  0.93577703  0.66502485  0.11935571     0.14800
H1424       H  0.55596778  0.68748561  0.22103956     0.14800
C1425       C  0.57025509  0.62343427  0.16834858     0.36450
C1426       C  0.92065968  0.72804664  0.17291456     0.36360
N1427       N  0.60122912  0.60301378  0.16718465    -0.43890
N1428       N  0.88919582  0.74773358  0.17387754    -0.43890
C1429       C  0.99550955  0.74967401  0.72701161     0.00420
C1430       C  0.49353948  0.74797938  0.77096381     0.00420
O1431       O  0.99774929  0.62163445  0.56708358    -0.86640
O1432       O  0.00850930  0.87997507  0.57159131    -0.86800
O1433       O  0.93396823  0.50170266  0.62146993    -0.88470
O1434       O  0.57462959  0.49993168  0.61826744    -0.87230
O1435       O  0.62568533  0.50304932  0.56519991    -0.86820
O1436       O  0.88001512  0.49759425  0.57150419    -0.88190
O1437       O  0.00506964  0.93239332  0.62243375    -0.86670
O1438       O  0.00340216  0.57071717  0.62012445    -0.86250
Zr1439     Zr  0.00365111  0.50124432  0.58551735     2.84310
O1440       O  0.54702881  0.95871771  0.54206551    -1.08230
O1441       O  0.95820091  0.54324185  0.54303379    -1.08960
C1442       C  0.00005936  0.60967616  0.60679282     1.06470
C1443       C  0.00741166  0.89308192  0.61064348     1.06410
C1444       C  0.89401143  0.49962319  0.61018826     1.09400
C1445       C  0.61389024  0.50089273  0.60482908     1.07180
H1446       H  0.94271688  0.93869221  0.56343888     0.32730
O1447       O  0.95975776  0.95664140  0.54479743    -1.29180
H1448       H  0.56344415  0.56322748  0.55774288     0.32410
O1449       O  0.54541195  0.54494685  0.54070148    -1.30860
O1450       O  0.00200930  0.87701463  0.93312239    -0.86630
O1451       O  0.99902305  0.61864147  0.92601150    -0.88130
O1452       O  0.88017911  0.92895620  0.50068604    -0.86710
O1453       O  0.62664096  0.93556450  0.49774448    -0.86760
O1454       O  0.62306692  0.57134866  0.99233882    -0.86470
O1455       O  0.87790701  0.56853224  0.00331539    -0.86270
O1456       O  0.92512988  0.99514271  0.88215953    -0.86640
O1457       O  0.56583089  0.00024597  0.87527712    -0.86110
O1458       O  0.87463768  0.00000568  0.93556448    -0.87170
O1459       O  0.62007036  0.00132909  0.92520648    -0.86330
O1460       O  0.93346376  0.87810962  0.50368462    -0.86730
O1461       O  0.92983779  0.62026104  0.99793969    -0.86450
O1462       O  0.56945035  0.62153747  0.99543223    -0.86100
O1463       O  0.57571804  0.88245737  0.49857295    -0.86510
O1464       O  0.99715161  0.92714105  0.87947062    -0.86800
O1465       O  0.99455481  0.56593812  0.87541646    -0.88140
Zr1466     Zr  0.00341075  0.91397411  0.50135012     2.83100
Zr1467     Zr  0.99977037  0.58594721  0.99742431     2.83500
Zr1468     Zr  0.91426797  0.99896490  0.00212428     2.84090
Zr1469     Zr  0.58786766  0.00226627  0.99642790     2.83360
Zr1470     Zr  0.99739528  0.99771880  0.91298289     2.84180
O1471       O  0.54172029  0.54281219  0.95332526    -1.08710
O1472       O  0.95667244  0.95496654  0.95890056    -1.08210
C1473       C  0.99968822  0.88819104  0.89332122     1.06440
C1474       C  0.99649266  0.60525334  0.88704212     1.09060
C1475       C  0.89361250  0.89001509  0.50229118     1.06620
C1476       C  0.61496820  0.89626670  0.49781414     1.06980
C1477       C  0.60936723  0.61011862  0.99344057     1.06560
C1478       C  0.89036944  0.60779873  0.00030822     1.06110
C1479       C  0.88603626  0.99730949  0.89612621     1.06540
C1480       C  0.60582338  0.00126929  0.88635785     1.06050
H1481       H  0.93667210  0.55913618  0.93874420     0.32730
O1482       O  0.95540234  0.54181505  0.95636445    -1.29810
H1483       H  0.56193093  0.93949640  0.93745029     0.32750
O1484       O  0.54422756  0.95709845  0.95553105    -1.31200
C1485       C  0.77399112  0.00507079  0.75134759     0.00420
C1486       C  0.73018504  0.00301093  0.74839535     0.00420
C1487       C  0.72819024  0.75256547  0.50183236     0.00420
C1488       C  0.77213375  0.75045804  0.50089299     0.00420
C1489       C  0.79926299  0.78977621  0.50154079    -0.00300
C1490       C  0.82619833  0.79526149  0.53695719    -0.12180
C1491       C  0.85685811  0.82767853  0.53767149     0.01930
C1492       C  0.86056354  0.85622238  0.50289210    -0.00390
C1493       C  0.83318658  0.85141518  0.96755507    -0.12120
C1494       C  0.80352780  0.81771506  0.96602934     0.01820
H1495       H  0.82408033  0.77313433  0.56374412     0.14800
H1496       H  0.83649390  0.87272224  0.94027367     0.14800
C1497       C  0.78117180  0.81019468  0.92635685     0.36450
C1498       C  0.88447154  0.83038099  0.57439180     0.36360
N1499       N  0.76398711  0.80414529  0.89412972    -0.43890
N1500       N  0.90652605  0.83148083  0.60405681    -0.43890
C1501       C  0.85713953  0.64164841  0.99847128    -0.00300
C1502       C  0.82400998  0.64259804  0.52905614    -0.12180
C1503       C  0.79515672  0.67716542  0.53069378     0.01930
C1504       C  0.79726217  0.70978655  0.99919470    -0.00390
C1505       C  0.82911394  0.70733719  0.96759128    -0.12120
C1506       C  0.85973249  0.67496679  0.96797420     0.01820
H1507       H  0.82248939  0.61782184  0.55341056     0.14800
H1508       H  0.83170265  0.73246131  0.94369509     0.14800
C1509       C  0.89492264  0.67868896  0.93819307     0.36450
C1510       C  0.76649893  0.68003067  0.56683683     0.36360
N1511       N  0.92353923  0.68335624  0.91506138    -0.43890
N1512       N  0.74380037  0.68217762  0.59607378    -0.43890
C1513       C  0.64940895  0.86435799  0.49657742    -0.00300
C1514       C  0.67386848  0.85631675  0.53343473    -0.12180
C1515       C  0.70321757  0.82241337  0.53462218     0.01930
C1516       C  0.70580652  0.79452086  0.49943149    -0.00390
C1517       C  0.68354414  0.80473928  0.96165625    -0.12120
C1518       C  0.65738567  0.84086056  0.95935369     0.01820
H1519       H  0.66914957  0.87574828  0.56159338     0.14800
H1520       H  0.68679594  0.78449049  0.93390201     0.14800
C1521       C  0.64092805  0.85465693  0.91830415     0.36450
C1522       C  0.72741588  0.81492650  0.57339080     0.36360
N1523       N  0.62839934  0.86621023  0.88531500    -0.43890
N1524       N  0.74651496  0.80903502  0.60466822    -0.43890
C1525       C  0.64159382  0.64460021  0.99508868    -0.00300
C1526       C  0.63510563  0.67653552  0.52523659    -0.12180
C1527       C  0.66364499  0.71045600  0.52907634     0.01930
C1528       C  0.69949678  0.71403969  0.00115320    -0.00390
C1529       C  0.70594345  0.68179880  0.97066177    -0.12120
C1530       C  0.67808624  0.64663025  0.96827472     0.01820
H1531       H  0.60773012  0.67450369  0.54672605     0.14800
H1532       H  0.73239267  0.68428913  0.94822694     0.14800
C1533       C  0.68691884  0.61389460  0.93728732     0.36450
C1534       C  0.65510686  0.73989945  0.56323107     0.36360
N1535       N  0.69410616  0.58760009  0.91253601    -0.43890
N1536       N  0.64663938  0.76235568  0.59117964    -0.43890
C1537       C  0.85175246  0.99668461  0.86397074    -0.00300
C1538       C  0.82522634  0.53248939  0.85826266    -0.12180
C1539       C  0.79660969  0.53472054  0.82362161     0.01930
C1540       C  0.79650468  0.00172390  0.79316847    -0.00390
C1541       C  0.82161350  0.96523250  0.80044921    -0.12120
C1542       C  0.84714739  0.96160274  0.83685407     0.01820
H1543       H  0.82786557  0.55912769  0.87999435     0.14800
H1544       H  0.82030529  0.93903688  0.77805016     0.14800
C1545       C  0.86442919  0.92045982  0.84844666     0.36450
C1546       C  0.77026584  0.57228043  0.81825921     0.36360
N1547       N  0.87603514  0.88701642  0.85915762    -0.43890
N1548       N  0.74916071  0.60239703  0.81391757    -0.43890
C1549       C  0.63811283  0.00231251  0.85178665    -0.00300
C1550       C  0.67200464  0.97279678  0.85265660    -0.12180
C1551       C  0.70174632  0.97102987  0.81900516     0.01930
C1552       C  0.70135089  0.00304410  0.78678995    -0.00390
C1553       C  0.66762534  0.53281150  0.78657443    -0.12120
C1554       C  0.63488950  0.53097243  0.81698170     0.01820
H1555       H  0.67317562  0.94893501  0.87794770     0.14800
H1556       H  0.66527855  0.55590628  0.76063831     0.14800
C1557       C  0.59682733  0.55605256  0.80914325     0.36450
C1558       C  0.72768799  0.93309817  0.81561508     0.36360
N1559       N  0.56584136  0.57476815  0.80087577    -0.43890
N1560       N  0.74723451  0.90180368  0.81324354    -0.43890
C1561       C  0.64777102  0.49887647  0.63794678    -0.00300
C1562       C  0.67883264  0.53125848  0.64027512    -0.12180
C1563       C  0.70740204  0.53315170  0.67511343     0.01930
C1564       C  0.70679434  0.50057857  0.70669346    -0.00390
C1565       C  0.67756124  0.96698255  0.70249392    -0.12120
C1566       C  0.64746261  0.96660940  0.66957232     0.01820
H1567       H  0.67875044  0.55666471  0.61653175     0.14800
H1568       H  0.67646305  0.94214178  0.72685037     0.14800
C1569       C  0.61530105  0.93373832  0.67075891     0.36450
C1570       C  0.73414919  0.57039059  0.67942666     0.36360
N1571       N  0.58952124  0.90741984  0.67347535    -0.43890
N1572       N  0.75540549  0.60043470  0.68270055    -0.43890
C1573       C  0.86177415  0.50089638  0.64453408    -0.00300
C1574       C  0.86682356  0.53152706  0.67627342    -0.12180
C1575       C  0.83763187  0.53458306  0.70988473     0.01930
C1576       C  0.80291018  0.50545598  0.71308231    -0.00390
C1577       C  0.79821607  0.97432594  0.68128736    -0.12120
C1578       C  0.82650895  0.97265330  0.64649026     0.01820
H1579       H  0.89346506  0.55380149  0.67435712     0.14800
H1580       H  0.77286855  0.95078152  0.68392660     0.14800
C1581       C  0.81946992  0.94078038  0.61417019     0.36450
C1582       C  0.84424784  0.56874950  0.73980700     0.36360
N1583       N  0.81343733  0.91541109  0.58819466    -0.43890
N1584       N  0.85076968  0.59660091  0.76295955    -0.43890
C1585       C  0.99402064  0.70579649  0.79354939    -0.00300
C1586       C  0.53341286  0.69018529  0.80908912    -0.12180
C1587       C  0.53458377  0.65869882  0.84085212     0.01930
C1588       C  0.99644544  0.63775701  0.85285435    -0.00390
C1589       C  0.95767424  0.64896091  0.83268693    -0.12120
C1590       C  0.95590997  0.68393730  0.80442821     0.01820
H1591       H  0.56323171  0.70486705  0.79875110     0.14800
H1592       H  0.92834767  0.63224192  0.84122279     0.14800
C1593       C  0.91467283  0.69739945  0.78812722     0.36450
C1594       C  0.57502851  0.64949520  0.86166752     0.36360
N1595       N  0.88131080  0.70768987  0.77529924    -0.43890
N1596       N  0.60746663  0.64231166  0.87834975    -0.43890
C1597       C  0.99984651  0.85351204  0.86110616    -0.00300
C1598       C  0.96977680  0.85430017  0.82773712    -0.12180
C1599       C  0.96392177  0.81847248  0.80169902     0.01930
C1600       C  0.99630717  0.78671387  0.79962049    -0.00390
C1601       C  0.52830207  0.78787743  0.83165853    -0.12120
C1602       C  0.52691769  0.81762008  0.86472403     0.01820
H1603       H  0.94748448  0.88059632  0.82542753     0.14800
H1604       H  0.55279862  0.76377641  0.83364124     0.14800
C1605       C  0.54953488  0.80729100  0.90377811     0.36450
C1606       C  0.92089781  0.81114013  0.78636906     0.36360
N1607       N  0.56583267  0.79733088  0.93561790    -0.43890
N1608       N  0.88581865  0.80599105  0.77516005    -0.43890
C1609       C  0.00711023  0.86003514  0.64445192    -0.00300
C1610       C  0.54070833  0.83023183  0.64698767    -0.12180
C1611       C  0.53962953  0.79704027  0.67737000     0.01930
C1612       C  0.00217692  0.79022242  0.70222805    -0.00390
C1613       C  0.96812165  0.81910308  0.69749652    -0.12120
C1614       C  0.97192092  0.85579330  0.67232225     0.01820
H1615       H  0.56832183  0.83363168  0.62603292     0.14800
H1616       H  0.93733700  0.81194398  0.71092652     0.14800
C1617       C  0.93784508  0.88706119  0.67372809     0.36450
C1618       C  0.57729747  0.77058175  0.68219443     0.36360
N1619       N  0.91051732  0.91201571  0.67541167    -0.43890
N1620       N  0.60794911  0.74997681  0.68612501    -0.43890
C1621       C  0.99827823  0.64333021  0.63975507    -0.00300
C1622       C  0.96211294  0.66998109  0.64153210    -0.12180
C1623       C  0.95942367  0.70279490  0.67165652     0.01930
C1624       C  0.99375062  0.71004366  0.70034776    -0.00390
C1625       C  0.52922718  0.68221973  0.69954430    -0.12120
C1626       C  0.53176705  0.64917159  0.66961368     0.01820
H1627       H  0.93577669  0.66502512  0.61935585     0.14800
H1628       H  0.55596776  0.68748603  0.72103928     0.14800
C1629       C  0.57025515  0.62343498  0.66834799     0.36450
C1630       C  0.92065952  0.72804701  0.67291470     0.36360
N1631       N  0.60122931  0.60301469  0.66718378    -0.43890
N1632       N  0.88919574  0.74773404  0.67387779    -0.43890
loop_ 
_geom_bond_atom_site_label_1 
_geom_bond_atom_site_label_2 
_geom_bond_distance 
_geom_bond_site_symmetry_2 
_ccdc_geom_bond_type 
C1          C184   1.499       .  S
C1          C196   1.504       .  S
C1          C818   1.376       .  D
C2          C973   1.495       .  S
C2          C988   1.518       .  S
C2          C817   1.376       .  D
O3           C14   1.296       .  A
O3         Zr243   2.458   1_554  S
O4           C15   1.292       .  A
O4          Zr38   2.438       .  S
O5           C16   1.293   1_545  A
O5          Zr11   2.441       .  S
O6           C17   1.292   1_565  A
O6         Zr827   2.433   1_565  S
O7           C17   1.293       .  A
O7         Zr653   2.450   1_554  S
O8           C16   1.287       .  A
O8         Zr652   2.416       .  S
O9           C15   1.292       .  A
O9         Zr419   2.441       .  S
O10          C14   1.292       .  A
O10         Zr11   2.442       .  S
Zr11        O822   2.433   1_545  S
Zr11        O417   2.441   1_545  S
Zr11         O13   2.338       .  S
Zr11       O1236   2.340   1_545  S
Zr11        O837   2.346       .  S
Zr11        O427   2.340   1_545  S
O12       Zr1235   2.340       .  S
O12        Zr854   2.337       .  S
O12        Zr245   2.342   1_554  S
O13        Zr243   2.339   1_554  S
O13        Zr652   2.338   1_545  S
C14         C193   1.483       .  S
C15         C181   1.474       .  S
C16         C145   1.470   1_565  S
C17         C133   1.478   1_545  S
H18          O19   0.966       .  S
O19         Zr38   2.347       .  S
O19        Zr419   2.340       .  S
O19        Zr244   2.348       .  S
H20          O21   0.966       .  S
O21        Zr827   2.346       .  S
O21       Zr1059   2.338   1_454  S
O21        Zr653   2.341   1_554  S
O22          C45   1.292       .  A
O22        Zr242   2.436       .  S
O23          C46   1.294       .  A
O23         Zr39   2.449       .  S
O24          C47   1.292       .  A
O24        Zr244   2.441       .  S
O25          C48   1.286       .  A
O25        Zr245   2.415       .  S
O26          C49   1.289       .  A
O26        Zr449   2.432       .  S
O27          C50   1.295       .  A
O27        Zr448   2.458   1_545  S
O28          C51   1.294       .  A
O28         Zr42   2.447       .  S
O29          C52   1.291       .  A
O29        Zr858   2.434   1_455  S
O30          C51   1.286       .  A
O30         Zr40   2.418       .  S
O31          C52   1.292       .  A
O31         Zr41   2.442       .  S
O32          C47   1.295       .  A
O32         Zr38   2.451       .  S
O33          C50   1.291       .  A
O33         Zr39   2.426       .  S
O34          C49   1.293       .  A
O34        Zr855   2.439   1_455  S
O35          C48   1.296       .  A
O35        Zr854   2.458   1_556  S
O36          C45   1.296       .  A
O36         Zr42   2.458       .  S
O37          C46   1.291       .  A
O37        Zr450   2.435   1_545  S
Zr38        O226   2.436   1_554  S
Zr38        O851   2.458   1_554  S
Zr38        O828   2.337       .  S
Zr38        O248   2.344   1_554  S
Zr38       O1076   2.338   1_554  S
Zr39        O207   2.458       .  S
Zr39        O850   2.439       .  S
Zr39         O54   2.345       .  S
Zr39        O217   2.339       .  S
Zr39       O1041   2.338       .  S
Zr39        O859   2.337       .  S
Zr40        O620   2.416       .  S
Zr40        O228   2.441       .  S
Zr40        O435   2.458       .  S
Zr40         O44   2.345       .  S
Zr40        O625   2.338       .  S
Zr40        O223   2.348       .  S
Zr40        O462   2.337       .  S
Zr41        O619   2.450       .  S
Zr41        O229   2.415       .  S
Zr41        O434   2.432       .  S
Zr41         O56   2.349       .  S
Zr41        O216   2.342       .  S
Zr41        O633   2.341       .  S
Zr41        O451   2.337       .  S
Zr42        O845   2.434       .  S
Zr42        O445   2.435       .  S
Zr42         O44   2.331       .  S
Zr42       O1267   2.351       .  S
Zr42        O872   2.341       .  S
Zr42        O462   2.343       .  S
O43        Zr855   2.337   1_455  S
O43        Zr449   2.337       .  S
O43       Zr1266   2.351   1_445  S
O44        Zr242   2.344       .  S
C45         C169   1.489       .  S
C46         C160   1.471       .  S
C47          C64   1.477       .  S
C48          C85   1.466       .  S
C49          C97   1.477       .  S
C50          C73   1.482       .  S
C51         C109   1.465       .  S
C52         C121   1.476       .  S
H53          O54   0.966       .  S
O54        Zr448   2.337   1_545  S
O54        Zr450   2.343   1_545  S
H55          O56   0.966       .  S
O56       Zr1058   2.338       .  S
O56        Zr858   2.341   1_455  S
C57         C112   1.486       .  S
C57         C556   1.497       .  S
C57          C58   1.367       .  D
C58         C124   1.498       .  S
C58         C544   1.495       .  S
C59          C88   1.490   1_554  S
C59         C304   1.504       .  S
C59          C60   1.368       .  D
C60          C61   1.496       .  S
C60         C280   1.497   1_554  S
C61          C62   1.400       .  A
C61         C270   1.415   1_554  A
C62          C63   1.395       .  A
C62          H67   1.085       .  S
C63          C64   1.408       .  A
C63          C70   1.436       .  S
C64         C269   1.404   1_554  A
C65          C66   1.405       .  A
C65         C268   1.404       .  A
C65          H68   1.084       .  S
C66         C265   1.415       .  A
C66          C69   1.443       .  S
C69          N71   1.157       .  T
C70          N72   1.154       .  T
C73          C78   1.411       .  A
C73         C278   1.406       .  A
C74          C75   1.408       .  A
C74         C277   1.406   1_554  A
C74          H79   1.085       .  S
C75         C280   1.416   1_554  A
C75          C82   1.442       .  S
C76         C264   1.497       .  S
C76          C77   1.402       .  A
C76         C279   1.416       .  A
C77          C78   1.392       .  A
C77          H80   1.085       .  S
C78          C81   1.441       .  S
C81          N83   1.155       .  T
C82          N84   1.157       .  T
C85          C86   1.401   1_556  A
C85         C294   1.405       .  A
C86          C87   1.401       .  A
C86          H91   1.085       .  S
C87          C88   1.414   1_554  A
C87          C94   1.444       .  S
C88         C293   1.403       .  A
C89          C90   1.396       .  A
C89         C292   1.403       .  A
C89          H92   1.084       .  S
C90         C289   1.405       .  A
C90          C93   1.444       .  S
C93          N95   1.157       .  T
C94          N96   1.157       .  T
C97         C102   1.412       .  A
C97         C302   1.396       .  A
C98          C99   1.392       .  A
C98         C301   1.396   1_554  A
C98         H103   1.086       .  S
C99         C304   1.420       .  A
C99         C106   1.442       .  S
C100        C263   1.504       .  S
C100        C101   1.410       .  A
C100        C303   1.420       .  A
C101        C102   1.406       .  A
C101        H104   1.083       .  S
C102        C105   1.444       .  S
C105        N107   1.158       .  T
C106        N108   1.157       .  T
C109        C114   1.402       .  A
C109        C518   1.404       .  A
C110        C111   1.403       .  A
C110        C517   1.404   1_545  A
C110        H115   1.085       .  S
C111        C520   1.412       .  A
C111        C118   1.443       .  S
C112        C113   1.402       .  A
C112        C519   1.412       .  A
C113        C114   1.391       .  A
C113        H116   1.085       .  S
C114        C117   1.442       .  S
C117        N119   1.156       .  T
C118        N120   1.157       .  T
C121        C122   1.403       .  A
C121        C534   1.409       .  A
C122        C123   1.402       .  A
C122        H127   1.085       .  S
C123        C124   1.417       .  A
C123        C130   1.442       .  S
C124        C533   1.404       .  A
C125        C126   1.394       .  A
C125        C532   1.404       .  A
C125        H128   1.085       .  S
C126        C529   1.409       .  A
C126        C129   1.441       .  S
C129        N131   1.156       .  T
C130        N132   1.157       .  T
C133        C134   1.405   1_565  A
C133        C546   1.409       .  A
C134        C135   1.407       .  A
C134        H139   1.085       .  S
C135        C136   1.415       .  A
C135        C142   1.442       .  S
C136        C466   1.495       .  S
C136        C545   1.400   1_545  A
C137        C138   1.391       .  A
C137        C544   1.400       .  A
C137        H140   1.086       .  S
C138        C541   1.409       .  A
C138        C141   1.438       .  S
C141        N143   1.154       .  T
C142        N144   1.157       .  T
C145        C146   1.396       .  A
C145        C558   1.412   1_545  A
C146        C147   1.393       .  A
C146        H151   1.086       .  S
C147        C148   1.418       .  A
C147        C154   1.444       .  S
C148        C465   1.497       .  S
C148        C557   1.407   1_545  A
C149        C150   1.400       .  A
C149        C556   1.407       .  A
C149        H152   1.084       .  S
C150        C553   1.412       .  A
C150        C153   1.444       .  S
C153        N155   1.157       .  T
C154        N156   1.157       .  T
C157        C818   1.495       .  S
C157        C162   1.410       .  A
C157        C974   1.404       .  A
C158        C159   1.395       .  A
C158        C973   1.404   1_455  A
C158        H163   1.084       .  S
C159        C976   1.406   1_455  A
C159        C166   1.444       .  S
C160        C161   1.404       .  A
C160        C975   1.406       .  A
C161        C162   1.404       .  A
C161        H164   1.085       .  S
C162        C165   1.441       .  S
C165        N167   1.157       .  T
C166        N168   1.157       .  T
C169        C170   1.401       .  A
C169        C990   1.409       .  A
C170        C171   1.405       .  A
C170        H175   1.079       .  S
C171        C172   1.418       .  A
C171        C178   1.440       .  S
C172        C818   1.518       .  S
C172        C989   1.412       .  A
C173        C174   1.399       .  A
C173        C988   1.412   1_455  A
C173        H176   1.074       .  S
C174        C985   1.409   1_455  A
C174        C177   1.443       .  S
C177        N179   1.157       .  T
C178        N180   1.158       .  T
C181        C186   1.405       .  A
C181        C998   1.403       .  A
C182        C183   1.404       .  A
C182        C997   1.403       .  A
C182        H187   1.085       .  S
C183       C1000   1.416       .  A
C183        C190   1.442       .  S
C184        C185   1.400       .  A
C184        C999   1.416       .  A
C185        C186   1.394       .  A
C185        H188   1.069       .  S
C186        C189   1.445       .  S
C189        N191   1.157       .  T
C190        N192   1.157       .  T
C193        C194   1.402       .  A
C193       C1014   1.411       .  A
C194        C195   1.404       .  A
C194        H199   1.085       .  S
C195        C196   1.414       .  A
C195        C202   1.443       .  S
C196       C1013   1.407       .  A
C197        C198   1.405       .  A
C197       C1012   1.407   1_455  A
C197        H200   1.083       .  S
C198       C1009   1.411   1_455  A
C198        C201   1.444       .  S
C201        N203   1.157       .  T
C202        N204   1.157       .  T
C205        C388   1.499       .  S
C205        C400   1.504       .  S
C205       C1022   1.376       .  D
C206       C1177   1.495       .  S
C206       C1192   1.518       .  S
C206       C1021   1.376       .  D
O207        C218   1.296       .  A
O208        C219   1.292       .  A
O208       Zr242   2.438       .  S
O209        C220   1.293   1_545  A
O209       Zr215   2.441       .  S
O210        C221   1.292   1_565  A
O210      Zr1031   2.433   1_565  S
O211        C221   1.293       .  A
O211       Zr449   2.450       .  S
O212        C220   1.287       .  A
O212       Zr448   2.416       .  S
O213        C219   1.292       .  A
O213       Zr623   2.441       .  S
O214        C218   1.292       .  A
O214       Zr215   2.442       .  S
Zr215      O1026   2.433   1_545  S
Zr215       O621   2.441   1_545  S
Zr215      O1440   2.340   1_545  S
Zr215       O217   2.338       .  S
Zr215      O1041   2.346       .  S
Zr215       O631   2.340   1_545  S
O216      Zr1439   2.340       .  S
O216      Zr1058   2.337       .  S
O217       Zr448   2.338   1_545  S
C218        C397   1.483       .  S
C219        C385   1.474       .  S
C220        C349   1.470   1_565  S
C221        C337   1.478   1_545  S
H222        O223   0.966       .  S
O223       Zr623   2.340       .  S
O223       Zr242   2.347       .  S
H224        O225   0.966       .  S
O225      Zr1031   2.346       .  S
O225       Zr855   2.338   1_455  S
O225       Zr449   2.341       .  S
O226        C249   1.292       .  A
O227        C250   1.294       .  A
O227       Zr243   2.449       .  S
O228        C251   1.292       .  A
O229        C252   1.286       .  A
O230        C253   1.289       .  A
O230       Zr653   2.432       .  S
O231        C254   1.295       .  A
O231       Zr652   2.458   1_545  S
O232        C255   1.294       .  A
O232       Zr246   2.447       .  S
O233        C256   1.291       .  A
O233      Zr1062   2.434   1_455  S
O234        C255   1.286       .  A
O234       Zr244   2.418   1_556  S
O235        C256   1.292       .  A
O235       Zr245   2.442       .  S
O236        C251   1.295       .  A
O236       Zr242   2.451       .  S
O237        C254   1.291   1_556  A
O237       Zr243   2.426       .  S
O238        C253   1.293       .  A
O238      Zr1059   2.439   1_455  S
O239        C252   1.296       .  A
O239      Zr1058   2.458       .  S
O240        C249   1.296       .  A
O240       Zr246   2.458       .  S
O241        C250   1.291       .  A
O241       Zr654   2.435   1_545  S
Zr242      O1055   2.458       .  S
Zr242      O1032   2.337       .  S
Zr242       O872   2.338       .  S
Zr243      O1054   2.439       .  S
Zr243       O837   2.338   1_556  S
Zr243      O1063   2.337       .  S
Zr243       O258   2.345       .  S
Zr244       O416   2.416       .  S
Zr244       O639   2.458       .  S
Zr244       O421   2.338       .  S
Zr244       O248   2.345   1_554  S
Zr244       O666   2.337   1_554  S
Zr245       O415   2.450   1_556  S
Zr245       O638   2.432       .  S
Zr245       O429   2.341   1_556  S
Zr245       O655   2.337       .  S
Zr245       O260   2.349       .  S
Zr246      O1049   2.434       .  S
Zr246       O649   2.435       .  S
Zr246      O1471   2.351       .  S
Zr246       O248   2.331       .  S
Zr246      O1076   2.341       .  S
Zr246       O666   2.343       .  S
O247      Zr1059   2.337   1_455  S
O247       Zr653   2.337       .  S
O247      Zr1470   2.351   1_445  S
C249        C373   1.489       .  S
C250        C364   1.471       .  S
C251        C268   1.477       .  S
C252        C289   1.466       .  S
C253        C301   1.477       .  S
C254        C277   1.482   1_554  S
C255        C313   1.465       .  S
C256        C325   1.476       .  S
H257        O258   0.966       .  S
O258       Zr652   2.337   1_546  S
O258       Zr654   2.343   1_545  S
H259        O260   0.966       .  S
O260       Zr854   2.338   1_556  S
O260      Zr1062   2.341   1_455  S
C261        C316   1.486       .  S
C261        C760   1.497       .  S
C261        C262   1.367       .  D
C262        C328   1.498       .  S
C262        C748   1.495       .  S
C263        C292   1.490       .  S
C263        C264   1.368       .  D
C264        C265   1.496       .  S
C265        C266   1.400       .  A
C266        C267   1.395       .  A
C266        H271   1.085       .  S
C267        C268   1.408       .  A
C267        C274   1.436       .  S
C269        C270   1.405       .  A
C269        H272   1.084       .  S
C270        C273   1.443       .  S
C273        N275   1.157       .  T
C274        N276   1.154       .  T
C277        C282   1.411       .  A
C278        C279   1.408       .  A
C278        H283   1.085       .  S
C279        C286   1.442       .  S
C280        C281   1.402       .  A
C281        C282   1.392       .  A
C281        H284   1.085       .  S
C282        C285   1.441       .  S
C285        N287   1.155       .  T
C286        N288   1.157       .  T
C289        C290   1.401       .  A
C290        C291   1.401       .  A
C290        H295   1.085       .  S
C291        C292   1.414       .  A
C291        C298   1.444       .  S
C293        C294   1.396       .  A
C293        H296   1.084       .  S
C294        C297   1.444       .  S
C297        N299   1.157       .  T
C298        N300   1.157       .  T
C301        C306   1.412       .  A
C302        C303   1.392       .  A
C302        H307   1.086       .  S
C303        C310   1.442       .  S
C304        C305   1.410   1_554  A
C305        C306   1.406       .  A
C305        H308   1.083       .  S
C306        C309   1.444       .  S
C309        N311   1.158       .  T
C310        N312   1.157       .  T
C313        C722   1.404       .  A
C313        C318   1.402       .  A
C314        C721   1.404   1_545  A
C314        C315   1.403       .  A
C314        H319   1.085       .  S
C315        C724   1.412       .  A
C315        C322   1.443       .  S
C316        C723   1.412       .  A
C316        C317   1.402       .  A
C317        C318   1.391       .  A
C317        H320   1.085       .  S
C318        C321   1.442       .  S
C321        N323   1.156       .  T
C322        N324   1.157       .  T
C325        C326   1.403       .  A
C325        C738   1.409       .  A
C326        C327   1.402       .  A
C326        H331   1.085       .  S
C327        C328   1.417       .  A
C327        C334   1.442       .  S
C328        C737   1.404       .  A
C329        C736   1.404       .  A
C329        C330   1.394       .  A
C329        H332   1.085       .  S
C330        C733   1.409       .  A
C330        C333   1.441       .  S
C333        N335   1.156       .  T
C334        N336   1.157       .  T
C337        C338   1.405   1_565  A
C337        C750   1.409       .  A
C338        C339   1.407       .  A
C338        H343   1.085       .  S
C339        C340   1.415       .  A
C339        C346   1.442       .  S
C340        C670   1.495       .  S
C340        C749   1.400   1_545  A
C341        C748   1.400       .  A
C341        C342   1.391       .  A
C341        H344   1.086       .  S
C342        C745   1.409       .  A
C342        C345   1.438       .  S
C345        N347   1.154       .  T
C346        N348   1.157       .  T
C349        C350   1.396       .  A
C349        C762   1.412   1_545  A
C350        C351   1.393       .  A
C350        H355   1.086       .  S
C351        C352   1.418       .  A
C351        C358   1.444       .  S
C352        C669   1.497       .  S
C352        C761   1.407   1_545  A
C353        C760   1.407       .  A
C353        C354   1.400       .  A
C353        H356   1.084       .  S
C354        C757   1.412       .  A
C354        C357   1.444       .  S
C357        N359   1.157       .  T
C358        N360   1.157       .  T
C361       C1022   1.495       .  S
C361       C1178   1.404       .  A
C361        C366   1.410       .  A
C362       C1177   1.404   1_455  A
C362        C363   1.395       .  A
C362        H367   1.084       .  S
C363       C1180   1.406   1_455  A
C363        C370   1.444       .  S
C364       C1179   1.406       .  A
C364        C365   1.404       .  A
C365        C366   1.404       .  A
C365        H368   1.085       .  S
C366        C369   1.441       .  S
C369        N371   1.157       .  T
C370        N372   1.157       .  T
C373        C374   1.401       .  A
C373       C1194   1.409       .  A
C374        C375   1.405       .  A
C374        H379   1.079       .  S
C375        C376   1.418       .  A
C375        C382   1.440       .  S
C376       C1022   1.518       .  S
C376       C1193   1.412       .  A
C377       C1192   1.412   1_455  A
C377        C378   1.399       .  A
C377        H380   1.074       .  S
C378       C1189   1.409   1_455  A
C378        C381   1.443       .  S
C381        N383   1.157       .  T
C382        N384   1.158       .  T
C385       C1202   1.403       .  A
C385        C390   1.405       .  A
C386       C1201   1.403       .  A
C386        C387   1.404       .  A
C386        H391   1.085       .  S
C387       C1204   1.416       .  A
C387        C394   1.442       .  S
C388       C1203   1.416       .  A
C388        C389   1.400       .  A
C389        C390   1.394       .  A
C389        H392   1.069       .  S
C390        C393   1.445       .  S
C393        N395   1.157       .  T
C394        N396   1.157       .  T
C397        C398   1.402       .  A
C397       C1218   1.411       .  A
C398        C399   1.404       .  A
C398        H403   1.085       .  S
C399        C400   1.414       .  A
C399        C406   1.443       .  S
C400       C1217   1.407       .  A
C401       C1216   1.407   1_455  A
C401        C402   1.405       .  A
C401        H404   1.083       .  S
C402       C1213   1.411   1_455  A
C402        C405   1.444       .  S
C405        N407   1.157       .  T
C406        N408   1.157       .  T
C409        C592   1.499       .  S
C409        C604   1.504       .  S
C409       C1226   1.376       .  D
C410       C1381   1.495       .  S
C410       C1396   1.518       .  S
C410       C1225   1.376       .  D
O411        C422   1.296       .  A
O411       Zr651   2.458   1_554  S
O412        C423   1.292       .  A
O412       Zr446   2.438       .  S
O413        C424   1.293       .  A
O413       Zr419   2.441       .  S
O414        C425   1.292       .  A
O414      Zr1235   2.433       .  S
O415        C425   1.293       .  A
O416        C424   1.287       .  A
O417        C423   1.292       .  A
O418        C422   1.292       .  A
O418       Zr419   2.442       .  S
Zr419      O1230   2.433       .  S
Zr419       O828   2.340       .  S
Zr419       O421   2.338       .  S
Zr419      O1245   2.346       .  S
O420       Zr827   2.340   1_565  S
O420      Zr1262   2.337       .  S
O420       Zr653   2.342   1_564  S
O421       Zr651   2.339   1_554  S
C422        C601   1.483       .  S
C423        C589   1.474       .  S
C424        C553   1.470       .  S
C425        C541   1.478       .  S
H426        O427   0.966       .  S
O427       Zr446   2.347       .  S
O427       Zr652   2.347       .  S
H428        O429   0.966       .  S
O429      Zr1235   2.346       .  S
O429      Zr1467   2.338   1_454  S
O430        C453   1.292       .  A
O430       Zr650   2.436       .  S
O431        C454   1.294       .  A
O431       Zr447   2.449       .  S
O432        C455   1.292       .  A
O432       Zr652   2.441       .  S
O433        C456   1.286       .  A
O433       Zr653   2.415   1_565  S
O434        C457   1.289       .  A
O435        C458   1.295       .  A
O436        C459   1.294       .  A
O436       Zr450   2.447       .  S
O437        C460   1.291       .  A
O437      Zr1266   2.434   1_445  S
O438        C459   1.286   1_545  A
O438       Zr448   2.418   1_545  S
O439        C460   1.292       .  A
O439       Zr449   2.442       .  S
O440        C455   1.295       .  A
O440       Zr446   2.451       .  S
O441        C458   1.291       .  A
O441       Zr447   2.426       .  S
O442        C457   1.293       .  A
O442      Zr1263   2.439   1_455  S
O443        C456   1.296       .  A
O443      Zr1262   2.458   1_556  S
O444        C453   1.296       .  A
O444       Zr450   2.458       .  S
O445        C454   1.291       .  A
Zr446       O634   2.436   1_554  S
Zr446      O1259   2.458   1_554  S
Zr446      O1236   2.337       .  S
Zr446       O656   2.344   1_554  S
Zr446      O1484   2.338   1_554  S
Zr447       O615   2.458       .  S
Zr447      O1258   2.439       .  S
Zr447       O625   2.339       .  S
Zr447      O1449   2.338       .  S
Zr447      O1267   2.337       .  S
Zr447       O462   2.345       .  S
Zr448       O636   2.441       .  S
Zr448       O631   2.348       .  S
Zr448       O452   2.345       .  S
Zr449       O637   2.415   1_545  S
Zr449       O624   2.342   1_545  S
Zr449       O464   2.349   1_545  S
Zr450      O1253   2.434   1_565  S
Zr450       O859   2.351   1_565  S
Zr450       O452   2.331       .  S
Zr450      O1280   2.341       .  S
O451      Zr1263   2.337   1_455  S
O451       Zr858   2.351   1_455  S
O452       Zr650   2.344       .  S
C453        C577   1.489       .  S
C454        C568   1.471       .  S
C455        C472   1.477       .  S
C456        C493   1.466       .  S
C457        C505   1.477       .  S
C458        C481   1.482       .  S
C459        C517   1.465       .  S
C460        C529   1.476       .  S
H461        O462   0.966       .  S
H463        O464   0.966       .  S
O464      Zr1466   2.338       .  S
O464      Zr1266   2.341   1_455  S
C465        C520   1.486       .  S
C465        C466   1.367       .  D
C466        C532   1.498       .  S
C467        C496   1.490   1_554  S
C467        C712   1.504       .  S
C467        C468   1.368       .  D
C468        C469   1.496       .  S
C468        C688   1.497   1_554  S
C469        C470   1.400       .  A
C469        C678   1.415   1_554  A
C470        C471   1.395       .  A
C470        H475   1.085       .  S
C471        C472   1.408       .  A
C471        C478   1.436       .  S
C472        C677   1.404   1_554  A
C473        C676   1.404       .  A
C473        C474   1.405       .  A
C473        H476   1.084       .  S
C474        C673   1.415       .  A
C474        C477   1.443       .  S
C477        N479   1.157       .  T
C478        N480   1.154       .  T
C481        C686   1.406       .  A
C481        C486   1.411       .  A
C482        C685   1.406   1_554  A
C482        C483   1.408       .  A
C482        H487   1.085       .  S
C483        C688   1.416   1_554  A
C483        C490   1.442       .  S
C484        C672   1.497       .  S
C484        C687   1.416       .  A
C484        C485   1.402       .  A
C485        C486   1.392       .  A
C485        H488   1.085       .  S
C486        C489   1.441       .  S
C489        N491   1.155       .  T
C490        N492   1.157       .  T
C493        C494   1.401   1_556  A
C493        C702   1.405       .  A
C494        C495   1.401       .  A
C494        H499   1.085       .  S
C495        C496   1.414   1_554  A
C495        C502   1.444       .  S
C496        C701   1.403       .  A
C497        C700   1.403       .  A
C497        C498   1.396       .  A
C497        H500   1.084       .  S
C498        C697   1.405       .  A
C498        C501   1.444       .  S
C501        N503   1.157       .  T
C502        N504   1.157       .  T
C505        C710   1.396       .  A
C505        C510   1.412       .  A
C506        C709   1.396   1_554  A
C506        C507   1.392       .  A
C506        H511   1.086       .  S
C507        C712   1.420       .  A
C507        C514   1.442       .  S
C508        C671   1.504       .  S
C508        C711   1.420       .  A
C508        C509   1.410       .  A
C509        C510   1.406       .  A
C509        H512   1.083       .  S
C510        C513   1.444       .  S
C513        N515   1.158       .  T
C514        N516   1.157       .  T
C517        C522   1.402       .  A
C518        C519   1.403       .  A
C518        H523   1.085       .  S
C519        C526   1.443       .  S
C520        C521   1.402   1_545  A
C521        C522   1.391       .  A
C521        H524   1.085       .  S
C522        C525   1.442       .  S
C525        N527   1.156       .  T
C526        N528   1.157       .  T
C529        C530   1.403   1_545  A
C530        C531   1.402       .  A
C530        H535   1.085       .  S
C531        C532   1.417   1_565  A
C531        C538   1.442       .  S
C533        C534   1.394       .  A
C533        H536   1.085       .  S
C534        C537   1.441       .  S
C537        N539   1.156       .  T
C538        N540   1.157       .  T
C541        C542   1.405       .  A
C542        C543   1.407       .  A
C542        H547   1.085       .  S
C543        C544   1.415       .  A
C543        C550   1.442       .  S
C545        C546   1.391       .  A
C545        H548   1.086       .  S
C546        C549   1.438       .  S
C549        N551   1.154       .  T
C550        N552   1.157       .  T
C553        C554   1.396       .  A
C554        C555   1.393       .  A
C554        H559   1.086       .  S
C555        C556   1.418       .  A
C555        C562   1.444       .  S
C557        C558   1.400       .  A
C557        H560   1.084       .  S
C558        C561   1.444       .  S
C561        N563   1.157       .  T
C562        N564   1.157       .  T
C565       C1226   1.495       .  S
C565       C1382   1.404       .  A
C565        C570   1.410       .  A
C566       C1381   1.404   1_455  A
C566        C567   1.395       .  A
C566        H571   1.084       .  S
C567       C1384   1.406   1_455  A
C567        C574   1.444       .  S
C568       C1383   1.406       .  A
C568        C569   1.404       .  A
C569        C570   1.404       .  A
C569        H572   1.085       .  S
C570        C573   1.441       .  S
C573        N575   1.157       .  T
C574        N576   1.157       .  T
C577        C578   1.401       .  A
C577       C1398   1.409       .  A
C578        C579   1.405       .  A
C578        H583   1.079       .  S
C579        C580   1.418       .  A
C579        C586   1.440       .  S
C580       C1226   1.518       .  S
C580       C1397   1.412       .  A
C581       C1396   1.412   1_455  A
C581        C582   1.399       .  A
C581        H584   1.074       .  S
C582       C1393   1.409   1_455  A
C582        C585   1.443       .  S
C585        N587   1.157       .  T
C586        N588   1.158       .  T
C589       C1406   1.403       .  A
C589        C594   1.405       .  A
C590       C1405   1.403       .  A
C590        C591   1.404       .  A
C590        H595   1.085       .  S
C591       C1408   1.416       .  A
C591        C598   1.442       .  S
C592       C1407   1.416       .  A
C592        C593   1.400       .  A
C593        C594   1.394       .  A
C593        H596   1.069       .  S
C594        C597   1.445       .  S
C597        N599   1.157       .  T
C598        N600   1.157       .  T
C601        C602   1.402       .  A
C601       C1422   1.411       .  A
C602        C603   1.404       .  A
C602        H607   1.085       .  S
C603        C604   1.414       .  A
C603        C610   1.443       .  S
C604       C1421   1.407       .  A
C605       C1420   1.407   1_455  A
C605        C606   1.405       .  A
C605        H608   1.083       .  S
C606       C1417   1.411   1_455  A
C606        C609   1.444       .  S
C609        N611   1.157       .  T
C610        N612   1.157       .  T
C613        C796   1.499       .  S
C613        C808   1.504       .  S
C613       C1430   1.376       .  D
C614       C1585   1.495       .  S
C614       C1600   1.518       .  S
C614       C1429   1.376       .  D
O615        C626   1.296       .  A
O616        C627   1.292       .  A
O616       Zr650   2.438       .  S
O617        C628   1.293       .  A
O617       Zr623   2.441       .  S
O618        C629   1.292       .  A
O618      Zr1439   2.433       .  S
O619        C629   1.293       .  A
O620        C628   1.287       .  A
O621        C627   1.292       .  A
O622        C626   1.292       .  A
O622       Zr623   2.442       .  S
Zr623      O1434   2.433       .  S
Zr623      O1032   2.340       .  S
Zr623       O625   2.338       .  S
Zr623      O1449   2.346       .  S
O624      Zr1031   2.340   1_565  S
O624      Zr1466   2.337       .  S
C626        C805   1.483       .  S
C627        C793   1.474       .  S
C628        C757   1.470       .  S
C629        C745   1.478       .  S
H630        O631   0.966       .  S
O631       Zr650   2.347       .  S
H632        O633   0.966       .  S
O633      Zr1439   2.346       .  S
O633      Zr1263   2.338   1_455  S
O634        C657   1.292       .  A
O635        C658   1.294       .  A
O635       Zr651   2.449       .  S
O636        C659   1.292       .  A
O637        C660   1.286       .  A
O638        C661   1.289       .  A
O639        C662   1.295       .  A
O640        C663   1.294       .  A
O640       Zr654   2.447       .  S
O641        C664   1.291       .  A
O641      Zr1470   2.434   1_445  S
O642        C663   1.286   1_545  A
O642       Zr652   2.418   1_546  S
O643        C664   1.292       .  A
O643       Zr653   2.442       .  S
O644        C659   1.295       .  A
O644       Zr650   2.451       .  S
O645        C662   1.291   1_556  A
O645       Zr651   2.426       .  S
O646        C661   1.293       .  A
O646      Zr1467   2.439   1_455  S
O647        C660   1.296       .  A
O647      Zr1466   2.458       .  S
O648        C657   1.296       .  A
O648       Zr654   2.458       .  S
O649        C658   1.291       .  A
Zr650      O1463   2.458       .  S
Zr650      O1440   2.337       .  S
Zr650      O1280   2.338       .  S
Zr651      O1462   2.439       .  S
Zr651      O1245   2.338   1_556  S
Zr651      O1471   2.337       .  S
Zr651       O666   2.345       .  S
Zr652       O656   2.345   1_554  S
Zr653       O668   2.349   1_545  S
Zr654      O1457   2.434   1_565  S
Zr654      O1063   2.351   1_565  S
Zr654       O656   2.331       .  S
Zr654      O1484   2.341       .  S
O655      Zr1467   2.337   1_455  S
O655      Zr1062   2.351   1_455  S
C657        C781   1.489       .  S
C658        C772   1.471       .  S
C659        C676   1.477       .  S
C660        C697   1.466       .  S
C661        C709   1.477       .  S
C662        C685   1.482   1_554  S
C663        C721   1.465       .  S
C664        C733   1.476       .  S
H665        O666   0.966       .  S
H667        O668   0.966       .  S
O668      Zr1262   2.338   1_556  S
O668      Zr1470   2.341   1_455  S
C669        C724   1.486       .  S
C669        C670   1.367       .  D
C670        C736   1.498       .  S
C671        C700   1.490       .  S
C671        C672   1.368       .  D
C672        C673   1.496       .  S
C673        C674   1.400       .  A
C674        C675   1.395       .  A
C674        H679   1.085       .  S
C675        C676   1.408       .  A
C675        C682   1.436       .  S
C677        C678   1.405       .  A
C677        H680   1.084       .  S
C678        C681   1.443       .  S
C681        N683   1.157       .  T
C682        N684   1.154       .  T
C685        C690   1.411       .  A
C686        C687   1.408       .  A
C686        H691   1.085       .  S
C687        C694   1.442       .  S
C688        C689   1.402       .  A
C689        C690   1.392       .  A
C689        H692   1.085       .  S
C690        C693   1.441       .  S
C693        N695   1.155       .  T
C694        N696   1.157       .  T
C697        C698   1.401       .  A
C698        C699   1.401       .  A
C698        H703   1.085       .  S
C699        C700   1.414       .  A
C699        C706   1.444       .  S
C701        C702   1.396       .  A
C701        H704   1.084       .  S
C702        C705   1.444       .  S
C705        N707   1.157       .  T
C706        N708   1.157       .  T
C709        C714   1.412       .  A
C710        C711   1.392       .  A
C710        H715   1.086       .  S
C711        C718   1.442       .  S
C712        C713   1.410   1_554  A
C713        C714   1.406       .  A
C713        H716   1.083       .  S
C714        C717   1.444       .  S
C717        N719   1.158       .  T
C718        N720   1.157       .  T
C721        C726   1.402       .  A
C722        C723   1.403       .  A
C722        H727   1.085       .  S
C723        C730   1.443       .  S
C724        C725   1.402   1_545  A
C725        C726   1.391       .  A
C725        H728   1.085       .  S
C726        C729   1.442       .  S
C729        N731   1.156       .  T
C730        N732   1.157       .  T
C733        C734   1.403   1_545  A
C734        C735   1.402       .  A
C734        H739   1.085       .  S
C735        C736   1.417   1_565  A
C735        C742   1.442       .  S
C737        C738   1.394       .  A
C737        H740   1.085       .  S
C738        C741   1.441       .  S
C741        N743   1.156       .  T
C742        N744   1.157       .  T
C745        C746   1.405       .  A
C746        C747   1.407       .  A
C746        H751   1.085       .  S
C747        C748   1.415       .  A
C747        C754   1.442       .  S
C749        C750   1.391       .  A
C749        H752   1.086       .  S
C750        C753   1.438       .  S
C753        N755   1.154       .  T
C754        N756   1.157       .  T
C757        C758   1.396       .  A
C758        C759   1.393       .  A
C758        H763   1.086       .  S
C759        C760   1.418       .  A
C759        C766   1.444       .  S
C761        C762   1.400       .  A
C761        H764   1.084       .  S
C762        C765   1.444       .  S
C765        N767   1.157       .  T
C766        N768   1.157       .  T
C769       C1430   1.495       .  S
C769       C1586   1.404       .  A
C769        C774   1.410       .  A
C770       C1585   1.404   1_455  A
C770        C771   1.395       .  A
C770        H775   1.084       .  S
C771       C1588   1.406   1_455  A
C771        C778   1.444       .  S
C772       C1587   1.406       .  A
C772        C773   1.404       .  A
C773        C774   1.404       .  A
C773        H776   1.085       .  S
C774        C777   1.441       .  S
C777        N779   1.157       .  T
C778        N780   1.157       .  T
C781        C782   1.401       .  A
C781       C1602   1.409       .  A
C782        C783   1.405       .  A
C782        H787   1.079       .  S
C783        C784   1.418       .  A
C783        C790   1.440       .  S
C784       C1430   1.518       .  S
C784       C1601   1.412       .  A
C785       C1600   1.412   1_455  A
C785        C786   1.399       .  A
C785        H788   1.074       .  S
C786       C1597   1.409   1_455  A
C786        C789   1.443       .  S
C789        N791   1.157       .  T
C790        N792   1.158       .  T
C793       C1610   1.403       .  A
C793        C798   1.405       .  A
C794       C1609   1.403       .  A
C794        C795   1.404       .  A
C794        H799   1.085       .  S
C795       C1612   1.416       .  A
C795        C802   1.442       .  S
C796       C1611   1.416       .  A
C796        C797   1.400       .  A
C797        C798   1.394       .  A
C797        H800   1.069       .  S
C798        C801   1.445       .  S
C801        N803   1.157       .  T
C802        N804   1.157       .  T
C805        C806   1.402       .  A
C805       C1626   1.411       .  A
C806        C807   1.404       .  A
C806        H811   1.085       .  S
C807        C808   1.414       .  A
C807        C814   1.443       .  S
C808       C1625   1.407       .  A
C809       C1624   1.407   1_455  A
C809        C810   1.405       .  A
C809        H812   1.083       .  S
C810       C1621   1.411   1_455  A
C810        C813   1.444       .  S
C813        N815   1.157       .  T
C814        N816   1.157       .  T
C817       C1000   1.499   1_655  S
C817       C1012   1.504       .  S
O819        C830   1.296   1_655  A
O819      Zr1059   2.458   1_554  S
O820        C831   1.292       .  A
O820       Zr854   2.438       .  S
O821        C832   1.293   1_545  A
O821       Zr827   2.441   1_655  S
O822        C833   1.292   1_565  A
O823        C833   1.293       .  A
O823      Zr1469   2.450   1_554  S
O824        C832   1.287       .  A
O824      Zr1468   2.416       .  S
O825        C831   1.292       .  A
O825      Zr1235   2.441       .  S
O826        C830   1.292       .  A
O826       Zr827   2.442       .  S
Zr827      O1233   2.441   1_545  S
Zr827       O829   2.338   1_455  S
Zr827      O1243   2.340   1_445  S
O828      Zr1061   2.342   1_554  S
O829      Zr1059   2.339   1_554  S
O829      Zr1468   2.338   1_545  S
C830       C1009   1.483   1_455  S
C831        C997   1.474       .  S
C832        C961   1.470   1_565  S
C833        C949   1.478   1_545  S
H834        O835   0.966       .  S
O835      Zr1235   2.340   1_655  S
O835       Zr854   2.347   1_655  S
O835      Zr1060   2.348       .  S
H836        O837   0.966       .  S
O837      Zr1469   2.341   1_554  S
O838        C861   1.292   1_455  A
O838      Zr1058   2.436       .  S
O839        C862   1.294       .  A
O839       Zr855   2.449       .  S
O840        C863   1.292       .  A
O840      Zr1060   2.441       .  S
O841        C864   1.286       .  A
O841      Zr1061   2.415       .  S
O842        C865   1.289       .  A
O842      Zr1265   2.432       .  S
O843        C866   1.295       .  A
O843      Zr1264   2.458   1_545  S
O844        C867   1.294       .  A
O844       Zr858   2.447       .  S
O845        C868   1.291       .  A
O846        C867   1.286       .  A
O846       Zr856   2.418       .  S
O847        C868   1.292       .  A
O847       Zr857   2.442       .  S
O848        C863   1.295       .  A
O848       Zr854   2.451   1_655  S
O849        C866   1.291       .  A
O849       Zr855   2.426       .  S
O850        C865   1.293       .  A
O851        C864   1.296       .  A
O852        C861   1.296       .  A
O852       Zr858   2.458       .  S
O853        C862   1.291       .  A
O853      Zr1266   2.435   1_545  S
Zr854      O1042   2.436   1_554  S
Zr854      O1064   2.344   1_454  S
Zr855      O1023   2.458       .  S
Zr855      O1033   2.339       .  S
Zr855       O870   2.345       .  S
Zr856      O1436   2.416       .  S
Zr856      O1044   2.441       .  S
Zr856      O1251   2.458       .  S
Zr856      O1441   2.338       .  S
Zr856      O1039   2.348       .  S
Zr856       O860   2.345       .  S
Zr856      O1278   2.337       .  S
Zr857      O1435   2.450       .  S
Zr857      O1045   2.415       .  S
Zr857      O1250   2.432       .  S
Zr857      O1032   2.342       .  S
Zr857      O1449   2.341       .  S
Zr857      O1267   2.337       .  S
Zr857       O872   2.349       .  S
Zr858      O1261   2.435       .  S
Zr858       O860   2.331       .  S
Zr858      O1278   2.343       .  S
O859      Zr1265   2.337       .  S
O860      Zr1058   2.344   1_655  S
C861        C985   1.489       .  S
C862        C976   1.471       .  S
C863        C880   1.477       .  S
C864        C901   1.466       .  S
C865        C913   1.477       .  S
C866        C889   1.482       .  S
C867        C925   1.465       .  S
C868        C937   1.476       .  S
H869        O870   0.966       .  S
O870      Zr1264   2.337   1_545  S
O870      Zr1266   2.343   1_545  S
H871        O872   0.966       .  S
C873        C928   1.486       .  S
C873       C1372   1.497       .  S
C873        C874   1.367       .  D
C874        C940   1.498       .  S
C874       C1360   1.495       .  S
C875        C904   1.490   1_554  S
C875       C1120   1.504       .  S
C875        C876   1.368       .  D
C876        C877   1.496       .  S
C876       C1096   1.497   1_554  S
C877        C878   1.400       .  A
C877       C1086   1.415   1_554  A
C878        C879   1.395       .  A
C878        H883   1.085       .  S
C879        C880   1.408       .  A
C879        C886   1.436       .  S
C880       C1085   1.404   1_554  A
C881       C1084   1.404       .  A
C881        C882   1.405       .  A
C881        H884   1.084       .  S
C882       C1081   1.415       .  A
C882        C885   1.443       .  S
C885        N887   1.157       .  T
C886        N888   1.154       .  T
C889       C1094   1.406       .  A
C889        C894   1.411       .  A
C890       C1093   1.406   1_554  A
C890        C891   1.408       .  A
C890        H895   1.085       .  S
C891       C1096   1.416   1_554  A
C891        C898   1.442       .  S
C892       C1080   1.497       .  S
C892       C1095   1.416       .  A
C892        C893   1.402       .  A
C893        C894   1.392       .  A
C893        H896   1.085       .  S
C894        C897   1.441       .  S
C897        N899   1.155       .  T
C898        N900   1.157       .  T
C901        C902   1.401   1_556  A
C901       C1110   1.405       .  A
C902        C903   1.401       .  A
C902        H907   1.085       .  S
C903        C904   1.414   1_554  A
C903        C910   1.444       .  S
C904       C1109   1.403       .  A
C905       C1108   1.403       .  A
C905        C906   1.396       .  A
C905        H908   1.084       .  S
C906       C1105   1.405       .  A
C906        C909   1.444       .  S
C909        N911   1.157       .  T
C910        N912   1.157       .  T
C913       C1118   1.396       .  A
C913        C918   1.412       .  A
C914       C1117   1.396   1_554  A
C914        C915   1.392       .  A
C914        H919   1.086       .  S
C915       C1120   1.420       .  A
C915        C922   1.442       .  S
C916       C1079   1.504       .  S
C916       C1119   1.420       .  A
C916        C917   1.410       .  A
C917        C918   1.406       .  A
C917        H920   1.083       .  S
C918        C921   1.444       .  S
C921        N923   1.158       .  T
C922        N924   1.157       .  T
C925       C1334   1.404       .  A
C925        C930   1.402       .  A
C926       C1333   1.404   1_545  A
C926        C927   1.403       .  A
C926        H931   1.085       .  S
C927       C1336   1.412       .  A
C927        C934   1.443       .  S
C928       C1335   1.412       .  A
C928        C929   1.402       .  A
C929        C930   1.391       .  A
C929        H932   1.085       .  S
C930        C933   1.442       .  S
C933        N935   1.156       .  T
C934        N936   1.157       .  T
C937        C938   1.403       .  A
C937       C1350   1.409       .  A
C938        C939   1.402       .  A
C938        H943   1.085       .  S
C939        C940   1.417       .  A
C939        C946   1.442       .  S
C940       C1349   1.404       .  A
C941       C1348   1.404       .  A
C941        C942   1.394       .  A
C941        H944   1.085       .  S
C942       C1345   1.409       .  A
C942        C945   1.441       .  S
C945        N947   1.156       .  T
C946        N948   1.157       .  T
C949        C950   1.405   1_565  A
C949       C1362   1.409       .  A
C950        C951   1.407       .  A
C950        H955   1.085       .  S
C951        C952   1.415       .  A
C951        C958   1.442       .  S
C952       C1282   1.495       .  S
C952       C1361   1.400   1_545  A
C953       C1360   1.400       .  A
C953        C954   1.391       .  A
C953        H956   1.086       .  S
C954       C1357   1.409       .  A
C954        C957   1.438       .  S
C957        N959   1.154       .  T
C958        N960   1.157       .  T
C961        C962   1.396       .  A
C961       C1374   1.412   1_545  A
C962        C963   1.393       .  A
C962        H967   1.086       .  S
C963        C964   1.418       .  A
C963        C970   1.444       .  S
C964       C1281   1.497       .  S
C964       C1373   1.407   1_545  A
C965       C1372   1.407       .  A
C965        C966   1.400       .  A
C965        H968   1.084       .  S
C966       C1369   1.412       .  A
C966        C969   1.444       .  S
C969        N971   1.157       .  T
C970        N972   1.157       .  T
C973        C978   1.410       .  A
C974        C975   1.395       .  A
C974        H979   1.084       .  S
C975        C982   1.444       .  S
C976        C977   1.404       .  A
C977        C978   1.404       .  A
C977        H980   1.085       .  S
C978        C981   1.441       .  S
C981        N983   1.157       .  T
C982        N984   1.157       .  T
C985        C986   1.401       .  A
C986        C987   1.405       .  A
C986        H991   1.079       .  S
C987        C988   1.418       .  A
C987        C994   1.440       .  S
C989        C990   1.399       .  A
C989        H992   1.074       .  S
C990        C993   1.443       .  S
C993        N995   1.157       .  T
C994        N996   1.158       .  T
C997       C1002   1.405   1_455  A
C998        C999   1.404       .  A
C998       H1003   1.085       .  S
C999       C1006   1.442       .  S
C1000      C1001   1.400   1_455  A
C1001      C1002   1.394       .  A
C1001      H1004   1.069       .  S
C1002      C1005   1.445       .  S
C1005      N1007   1.157       .  T
C1006      N1008   1.157       .  T
C1009      C1010   1.402       .  A
C1010      C1011   1.404       .  A
C1010      H1015   1.085       .  S
C1011      C1012   1.414       .  A
C1011      C1018   1.443       .  S
C1013      C1014   1.405       .  A
C1013      H1016   1.083       .  S
C1014      C1017   1.444       .  S
C1017      N1019   1.157       .  T
C1018      N1020   1.157       .  T
C1021      C1204   1.499   1_655  S
C1021      C1216   1.504       .  S
O1023      C1034   1.296   1_655  A
O1024      C1035   1.292       .  A
O1024     Zr1058   2.438       .  S
O1025      C1036   1.293   1_545  A
O1025     Zr1031   2.441   1_655  S
O1026      C1037   1.292   1_565  A
O1027      C1037   1.293       .  A
O1027     Zr1265   2.450       .  S
O1028      C1036   1.287       .  A
O1028     Zr1264   2.416       .  S
O1029      C1035   1.292       .  A
O1029     Zr1439   2.441       .  S
O1030      C1034   1.292       .  A
O1030     Zr1031   2.442       .  S
Zr1031     O1437   2.441   1_545  S
Zr1031     O1033   2.338   1_455  S
Zr1031     O1447   2.340   1_445  S
O1033     Zr1264   2.338   1_545  S
C1034      C1213   1.483   1_455  S
C1035      C1201   1.474       .  S
C1036      C1165   1.470   1_565  S
C1037      C1153   1.478   1_545  S
H1038      O1039   0.966       .  S
O1039     Zr1439   2.340   1_655  S
O1039     Zr1058   2.347   1_655  S
H1040      O1041   0.966       .  S
O1041     Zr1265   2.341       .  S
O1042      C1065   1.292   1_455  A
O1043      C1066   1.294       .  A
O1043     Zr1059   2.449       .  S
O1044      C1067   1.292       .  A
O1045      C1068   1.286       .  A
O1046      C1069   1.289       .  A
O1046     Zr1469   2.432       .  S
O1047      C1070   1.295       .  A
O1047     Zr1468   2.458   1_545  S
O1048      C1071   1.294       .  A
O1048     Zr1062   2.447       .  S
O1049      C1072   1.291       .  A
O1050      C1071   1.286       .  A
O1050     Zr1060   2.418   1_556  S
O1051      C1072   1.292       .  A
O1051     Zr1061   2.442       .  S
O1052      C1067   1.295       .  A
O1052     Zr1058   2.451   1_655  S
O1053      C1070   1.291   1_556  A
O1053     Zr1059   2.426       .  S
O1054      C1069   1.293       .  A
O1055      C1068   1.296       .  A
O1056      C1065   1.296       .  A
O1056     Zr1062   2.458       .  S
O1057      C1066   1.291       .  A
O1057     Zr1470   2.435   1_545  S
Zr1059     O1074   2.345       .  S
Zr1060     O1232   2.416       .  S
Zr1060     O1455   2.458       .  S
Zr1060     O1237   2.338       .  S
Zr1060     O1064   2.345   1_554  S
Zr1060     O1482   2.337   1_554  S
Zr1061     O1231   2.450   1_556  S
Zr1061     O1454   2.432       .  S
Zr1061     O1245   2.341   1_556  S
Zr1061     O1471   2.337       .  S
Zr1061     O1076   2.349       .  S
Zr1062     O1465   2.435       .  S
Zr1062     O1064   2.331       .  S
Zr1062     O1482   2.343       .  S
O1063     Zr1469   2.337       .  S
C1065      C1189   1.489       .  S
C1066      C1180   1.471       .  S
C1067      C1084   1.477       .  S
C1068      C1105   1.466       .  S
C1069      C1117   1.477       .  S
C1070      C1093   1.482   1_554  S
C1071      C1129   1.465       .  S
C1072      C1141   1.476       .  S
H1073      O1074   0.966       .  S
O1074     Zr1468   2.337   1_546  S
O1074     Zr1470   2.343   1_545  S
H1075      O1076   0.966       .  S
C1077      C1132   1.486       .  S
C1077      C1576   1.497       .  S
C1077      C1078   1.367       .  D
C1078      C1144   1.498       .  S
C1078      C1564   1.495       .  S
C1079      C1108   1.490       .  S
C1079      C1080   1.368       .  D
C1080      C1081   1.496       .  S
C1081      C1082   1.400       .  A
C1082      C1083   1.395       .  A
C1082      H1087   1.085       .  S
C1083      C1084   1.408       .  A
C1083      C1090   1.436       .  S
C1085      C1086   1.405       .  A
C1085      H1088   1.084       .  S
C1086      C1089   1.443       .  S
C1089      N1091   1.157       .  T
C1090      N1092   1.154       .  T
C1093      C1098   1.411       .  A
C1094      C1095   1.408       .  A
C1094      H1099   1.085       .  S
C1095      C1102   1.442       .  S
C1096      C1097   1.402       .  A
C1097      C1098   1.392       .  A
C1097      H1100   1.085       .  S
C1098      C1101   1.441       .  S
C1101      N1103   1.155       .  T
C1102      N1104   1.157       .  T
C1105      C1106   1.401       .  A
C1106      C1107   1.401       .  A
C1106      H1111   1.085       .  S
C1107      C1108   1.414       .  A
C1107      C1114   1.444       .  S
C1109      C1110   1.396       .  A
C1109      H1112   1.084       .  S
C1110      C1113   1.444       .  S
C1113      N1115   1.157       .  T
C1114      N1116   1.157       .  T
C1117      C1122   1.412       .  A
C1118      C1119   1.392       .  A
C1118      H1123   1.086       .  S
C1119      C1126   1.442       .  S
C1120      C1121   1.410   1_554  A
C1121      C1122   1.406       .  A
C1121      H1124   1.083       .  S
C1122      C1125   1.444       .  S
C1125      N1127   1.158       .  T
C1126      N1128   1.157       .  T
C1129      C1538   1.404       .  A
C1129      C1134   1.402       .  A
C1130      C1537   1.404   1_545  A
C1130      C1131   1.403       .  A
C1130      H1135   1.085       .  S
C1131      C1540   1.412       .  A
C1131      C1138   1.443       .  S
C1132      C1539   1.412       .  A
C1132      C1133   1.402       .  A
C1133      C1134   1.391       .  A
C1133      H1136   1.085       .  S
C1134      C1137   1.442       .  S
C1137      N1139   1.156       .  T
C1138      N1140   1.157       .  T
C1141      C1142   1.403       .  A
C1141      C1554   1.409       .  A
C1142      C1143   1.402       .  A
C1142      H1147   1.085       .  S
C1143      C1144   1.417       .  A
C1143      C1150   1.442       .  S
C1144      C1553   1.404       .  A
C1145      C1552   1.404       .  A
C1145      C1146   1.394       .  A
C1145      H1148   1.085       .  S
C1146      C1549   1.409       .  A
C1146      C1149   1.441       .  S
C1149      N1151   1.156       .  T
C1150      N1152   1.157       .  T
C1153      C1154   1.405   1_565  A
C1153      C1566   1.409       .  A
C1154      C1155   1.407       .  A
C1154      H1159   1.085       .  S
C1155      C1156   1.415       .  A
C1155      C1162   1.442       .  S
C1156      C1486   1.495       .  S
C1156      C1565   1.400   1_545  A
C1157      C1564   1.400       .  A
C1157      C1158   1.391       .  A
C1157      H1160   1.086       .  S
C1158      C1561   1.409       .  A
C1158      C1161   1.438       .  S
C1161      N1163   1.154       .  T
C1162      N1164   1.157       .  T
C1165      C1166   1.396       .  A
C1165      C1578   1.412   1_545  A
C1166      C1167   1.393       .  A
C1166      H1171   1.086       .  S
C1167      C1168   1.418       .  A
C1167      C1174   1.444       .  S
C1168      C1485   1.497       .  S
C1168      C1577   1.407   1_545  A
C1169      C1576   1.407       .  A
C1169      C1170   1.400       .  A
C1169      H1172   1.084       .  S
C1170      C1573   1.412       .  A
C1170      C1173   1.444       .  S
C1173      N1175   1.157       .  T
C1174      N1176   1.157       .  T
C1177      C1182   1.410       .  A
C1178      C1179   1.395       .  A
C1178      H1183   1.084       .  S
C1179      C1186   1.444       .  S
C1180      C1181   1.404       .  A
C1181      C1182   1.404       .  A
C1181      H1184   1.085       .  S
C1182      C1185   1.441       .  S
C1185      N1187   1.157       .  T
C1186      N1188   1.157       .  T
C1189      C1190   1.401       .  A
C1190      C1191   1.405       .  A
C1190      H1195   1.079       .  S
C1191      C1192   1.418       .  A
C1191      C1198   1.440       .  S
C1193      C1194   1.399       .  A
C1193      H1196   1.074       .  S
C1194      C1197   1.443       .  S
C1197      N1199   1.157       .  T
C1198      N1200   1.158       .  T
C1201      C1206   1.405   1_455  A
C1202      C1203   1.404       .  A
C1202      H1207   1.085       .  S
C1203      C1210   1.442       .  S
C1204      C1205   1.400   1_455  A
C1205      C1206   1.394       .  A
C1205      H1208   1.069       .  S
C1206      C1209   1.445       .  S
C1209      N1211   1.157       .  T
C1210      N1212   1.157       .  T
C1213      C1214   1.402       .  A
C1214      C1215   1.404       .  A
C1214      H1219   1.085       .  S
C1215      C1216   1.414       .  A
C1215      C1222   1.443       .  S
C1217      C1218   1.405       .  A
C1217      H1220   1.083       .  S
C1218      C1221   1.444       .  S
C1221      N1223   1.157       .  T
C1222      N1224   1.157       .  T
C1225      C1408   1.499   1_655  S
C1225      C1420   1.504       .  S
O1227      C1238   1.296   1_655  A
O1227     Zr1467   2.458   1_554  S
O1228      C1239   1.292       .  A
O1228     Zr1262   2.438       .  S
O1229      C1240   1.293       .  A
O1229     Zr1235   2.441   1_655  S
O1230      C1241   1.292       .  A
O1231      C1241   1.293       .  A
O1232      C1240   1.287       .  A
O1233      C1239   1.292       .  A
O1234      C1238   1.292       .  A
O1234     Zr1235   2.442       .  S
Zr1235     O1237   2.338   1_455  S
O1236     Zr1469   2.342   1_564  S
O1237     Zr1467   2.339   1_554  S
C1238      C1417   1.483   1_455  S
C1239      C1405   1.474       .  S
C1240      C1369   1.470       .  S
C1241      C1357   1.478       .  S
H1242      O1243   0.966       .  S
O1243     Zr1262   2.347   1_655  S
O1243     Zr1468   2.347       .  S
H1244      O1245   0.966       .  S
O1246      C1269   1.292   1_455  A
O1246     Zr1466   2.436       .  S
O1247      C1270   1.294       .  A
O1247     Zr1263   2.449       .  S
O1248      C1271   1.292       .  A
O1248     Zr1468   2.441       .  S
O1249      C1272   1.286       .  A
O1249     Zr1469   2.415   1_565  S
O1250      C1273   1.289       .  A
O1251      C1274   1.295       .  A
O1252      C1275   1.294       .  A
O1252     Zr1266   2.447       .  S
O1253      C1276   1.291       .  A
O1254      C1275   1.286   1_545  A
O1254     Zr1264   2.418   1_545  S
O1255      C1276   1.292       .  A
O1255     Zr1265   2.442       .  S
O1256      C1271   1.295       .  A
O1256     Zr1262   2.451   1_655  S
O1257      C1274   1.291       .  A
O1257     Zr1263   2.426       .  S
O1258      C1273   1.293       .  A
O1259      C1272   1.296       .  A
O1260      C1269   1.296       .  A
O1260     Zr1266   2.458       .  S
O1261      C1270   1.291       .  A
Zr1262     O1450   2.436   1_554  S
Zr1262     O1472   2.344   1_454  S
Zr1263     O1431   2.458       .  S
Zr1263     O1441   2.339       .  S
Zr1263     O1278   2.345       .  S
Zr1264     O1452   2.441       .  S
Zr1264     O1447   2.348       .  S
Zr1264     O1268   2.345       .  S
Zr1265     O1453   2.415   1_545  S
Zr1265     O1440   2.342   1_545  S
Zr1265     O1280   2.349   1_545  S
Zr1266     O1268   2.331       .  S
O1268     Zr1466   2.344   1_655  S
C1269      C1393   1.489       .  S
C1270      C1384   1.471       .  S
C1271      C1288   1.477       .  S
C1272      C1309   1.466       .  S
C1273      C1321   1.477       .  S
C1274      C1297   1.482       .  S
C1275      C1333   1.465       .  S
C1276      C1345   1.476       .  S
H1277      O1278   0.966       .  S
H1279      O1280   0.966       .  S
C1281      C1336   1.486       .  S
C1281      C1282   1.367       .  D
C1282      C1348   1.498       .  S
C1283      C1312   1.490   1_554  S
C1283      C1528   1.504       .  S
C1283      C1284   1.368       .  D
C1284      C1285   1.496       .  S
C1284      C1504   1.497   1_554  S
C1285      C1286   1.400       .  A
C1285      C1494   1.415   1_554  A
C1286      C1287   1.395       .  A
C1286      H1291   1.085       .  S
C1287      C1288   1.408       .  A
C1287      C1294   1.436       .  S
C1288      C1493   1.404   1_554  A
C1289      C1492   1.404       .  A
C1289      C1290   1.405       .  A
C1289      H1292   1.084       .  S
C1290      C1489   1.415       .  A
C1290      C1293   1.443       .  S
C1293      N1295   1.157       .  T
C1294      N1296   1.154       .  T
C1297      C1502   1.406       .  A
C1297      C1302   1.411       .  A
C1298      C1501   1.406   1_554  A
C1298      C1299   1.408       .  A
C1298      H1303   1.085       .  S
C1299      C1504   1.416   1_554  A
C1299      C1306   1.442       .  S
C1300      C1488   1.497       .  S
C1300      C1503   1.416       .  A
C1300      C1301   1.402       .  A
C1301      C1302   1.392       .  A
C1301      H1304   1.085       .  S
C1302      C1305   1.441       .  S
C1305      N1307   1.155       .  T
C1306      N1308   1.157       .  T
C1309      C1310   1.401   1_556  A
C1309      C1518   1.405       .  A
C1310      C1311   1.401       .  A
C1310      H1315   1.085       .  S
C1311      C1312   1.414   1_554  A
C1311      C1318   1.444       .  S
C1312      C1517   1.403       .  A
C1313      C1516   1.403       .  A
C1313      C1314   1.396       .  A
C1313      H1316   1.084       .  S
C1314      C1513   1.405       .  A
C1314      C1317   1.444       .  S
C1317      N1319   1.157       .  T
C1318      N1320   1.157       .  T
C1321      C1526   1.396       .  A
C1321      C1326   1.412       .  A
C1322      C1525   1.396   1_554  A
C1322      C1323   1.392       .  A
C1322      H1327   1.086       .  S
C1323      C1528   1.420       .  A
C1323      C1330   1.442       .  S
C1324      C1487   1.504       .  S
C1324      C1527   1.420       .  A
C1324      C1325   1.410       .  A
C1325      C1326   1.406       .  A
C1325      H1328   1.083       .  S
C1326      C1329   1.444       .  S
C1329      N1331   1.158       .  T
C1330      N1332   1.157       .  T
C1333      C1338   1.402       .  A
C1334      C1335   1.403       .  A
C1334      H1339   1.085       .  S
C1335      C1342   1.443       .  S
C1336      C1337   1.402   1_545  A
C1337      C1338   1.391       .  A
C1337      H1340   1.085       .  S
C1338      C1341   1.442       .  S
C1341      N1343   1.156       .  T
C1342      N1344   1.157       .  T
C1345      C1346   1.403   1_545  A
C1346      C1347   1.402       .  A
C1346      H1351   1.085       .  S
C1347      C1348   1.417   1_565  A
C1347      C1354   1.442       .  S
C1349      C1350   1.394       .  A
C1349      H1352   1.085       .  S
C1350      C1353   1.441       .  S
C1353      N1355   1.156       .  T
C1354      N1356   1.157       .  T
C1357      C1358   1.405       .  A
C1358      C1359   1.407       .  A
C1358      H1363   1.085       .  S
C1359      C1360   1.415       .  A
C1359      C1366   1.442       .  S
C1361      C1362   1.391       .  A
C1361      H1364   1.086       .  S
C1362      C1365   1.438       .  S
C1365      N1367   1.154       .  T
C1366      N1368   1.157       .  T
C1369      C1370   1.396       .  A
C1370      C1371   1.393       .  A
C1370      H1375   1.086       .  S
C1371      C1372   1.418       .  A
C1371      C1378   1.444       .  S
C1373      C1374   1.400       .  A
C1373      H1376   1.084       .  S
C1374      C1377   1.444       .  S
C1377      N1379   1.157       .  T
C1378      N1380   1.157       .  T
C1381      C1386   1.410       .  A
C1382      C1383   1.395       .  A
C1382      H1387   1.084       .  S
C1383      C1390   1.444       .  S
C1384      C1385   1.404       .  A
C1385      C1386   1.404       .  A
C1385      H1388   1.085       .  S
C1386      C1389   1.441       .  S
C1389      N1391   1.157       .  T
C1390      N1392   1.157       .  T
C1393      C1394   1.401       .  A
C1394      C1395   1.405       .  A
C1394      H1399   1.079       .  S
C1395      C1396   1.418       .  A
C1395      C1402   1.440       .  S
C1397      C1398   1.399       .  A
C1397      H1400   1.074       .  S
C1398      C1401   1.443       .  S
C1401      N1403   1.157       .  T
C1402      N1404   1.158       .  T
C1405      C1410   1.405   1_455  A
C1406      C1407   1.404       .  A
C1406      H1411   1.085       .  S
C1407      C1414   1.442       .  S
C1408      C1409   1.400   1_455  A
C1409      C1410   1.394       .  A
C1409      H1412   1.069       .  S
C1410      C1413   1.445       .  S
C1413      N1415   1.157       .  T
C1414      N1416   1.157       .  T
C1417      C1418   1.402       .  A
C1418      C1419   1.404       .  A
C1418      H1423   1.085       .  S
C1419      C1420   1.414       .  A
C1419      C1426   1.443       .  S
C1421      C1422   1.405       .  A
C1421      H1424   1.083       .  S
C1422      C1425   1.444       .  S
C1425      N1427   1.157       .  T
C1426      N1428   1.157       .  T
C1429      C1612   1.499   1_655  S
C1429      C1624   1.504       .  S
O1431      C1442   1.296   1_655  A
O1432      C1443   1.292       .  A
O1432     Zr1466   2.438       .  S
O1433      C1444   1.293       .  A
O1433     Zr1439   2.441   1_655  S
O1434      C1445   1.292       .  A
O1435      C1445   1.293       .  A
O1436      C1444   1.287       .  A
O1437      C1443   1.292       .  A
O1438      C1442   1.292       .  A
O1438     Zr1439   2.442       .  S
Zr1439     O1441   2.338   1_455  S
C1442      C1621   1.483   1_455  S
C1443      C1609   1.474       .  S
C1444      C1573   1.470       .  S
C1445      C1561   1.478       .  S
H1446      O1447   0.966       .  S
O1447     Zr1466   2.347   1_655  S
H1448      O1449   0.966       .  S
O1450      C1473   1.292   1_455  A
O1451      C1474   1.294       .  A
O1451     Zr1467   2.449       .  S
O1452      C1475   1.292       .  A
O1453      C1476   1.286       .  A
O1454      C1477   1.289       .  A
O1455      C1478   1.295       .  A
O1456      C1479   1.294       .  A
O1456     Zr1470   2.447       .  S
O1457      C1480   1.291       .  A
O1458      C1479   1.286   1_545  A
O1458     Zr1468   2.418   1_546  S
O1459      C1480   1.292       .  A
O1459     Zr1469   2.442       .  S
O1460      C1475   1.295       .  A
O1460     Zr1466   2.451   1_655  S
O1461      C1478   1.291   1_556  A
O1461     Zr1467   2.426       .  S
O1462      C1477   1.293       .  A
O1463      C1476   1.296       .  A
O1464      C1473   1.296       .  A
O1464     Zr1470   2.458       .  S
O1465      C1474   1.291       .  A
Zr1467     O1482   2.345       .  S
Zr1468     O1472   2.345   1_554  S
Zr1469     O1484   2.349   1_545  S
Zr1470     O1472   2.331       .  S
C1473      C1597   1.489       .  S
C1474      C1588   1.471       .  S
C1475      C1492   1.477       .  S
C1476      C1513   1.466       .  S
C1477      C1525   1.477       .  S
C1478      C1501   1.482   1_554  S
C1479      C1537   1.465       .  S
C1480      C1549   1.476       .  S
H1481      O1482   0.966       .  S
H1483      O1484   0.966       .  S
C1485      C1540   1.486       .  S
C1485      C1486   1.367       .  D
C1486      C1552   1.498       .  S
C1487      C1516   1.490       .  S
C1487      C1488   1.368       .  D
C1488      C1489   1.496       .  S
C1489      C1490   1.400       .  A
C1490      C1491   1.395       .  A
C1490      H1495   1.085       .  S
C1491      C1492   1.408       .  A
C1491      C1498   1.436       .  S
C1493      C1494   1.405       .  A
C1493      H1496   1.084       .  S
C1494      C1497   1.443       .  S
C1497      N1499   1.157       .  T
C1498      N1500   1.154       .  T
C1501      C1506   1.411       .  A
C1502      C1503   1.408       .  A
C1502      H1507   1.085       .  S
C1503      C1510   1.442       .  S
C1504      C1505   1.402       .  A
C1505      C1506   1.392       .  A
C1505      H1508   1.085       .  S
C1506      C1509   1.441       .  S
C1509      N1511   1.155       .  T
C1510      N1512   1.157       .  T
C1513      C1514   1.401       .  A
C1514      C1515   1.401       .  A
C1514      H1519   1.085       .  S
C1515      C1516   1.414       .  A
C1515      C1522   1.444       .  S
C1517      C1518   1.396       .  A
C1517      H1520   1.084       .  S
C1518      C1521   1.444       .  S
C1521      N1523   1.157       .  T
C1522      N1524   1.157       .  T
C1525      C1530   1.412       .  A
C1526      C1527   1.392       .  A
C1526      H1531   1.086       .  S
C1527      C1534   1.442       .  S
C1528      C1529   1.410   1_554  A
C1529      C1530   1.406       .  A
C1529      H1532   1.083       .  S
C1530      C1533   1.444       .  S
C1533      N1535   1.158       .  T
C1534      N1536   1.157       .  T
C1537      C1542   1.402       .  A
C1538      C1539   1.403       .  A
C1538      H1543   1.085       .  S
C1539      C1546   1.443       .  S
C1540      C1541   1.402   1_545  A
C1541      C1542   1.391       .  A
C1541      H1544   1.085       .  S
C1542      C1545   1.442       .  S
C1545      N1547   1.156       .  T
C1546      N1548   1.157       .  T
C1549      C1550   1.403   1_545  A
C1550      C1551   1.402       .  A
C1550      H1555   1.085       .  S
C1551      C1552   1.417   1_565  A
C1551      C1558   1.442       .  S
C1553      C1554   1.394       .  A
C1553      H1556   1.085       .  S
C1554      C1557   1.441       .  S
C1557      N1559   1.156       .  T
C1558      N1560   1.157       .  T
C1561      C1562   1.405       .  A
C1562      C1563   1.407       .  A
C1562      H1567   1.085       .  S
C1563      C1564   1.415       .  A
C1563      C1570   1.442       .  S
C1565      C1566   1.391       .  A
C1565      H1568   1.086       .  S
C1566      C1569   1.438       .  S
C1569      N1571   1.154       .  T
C1570      N1572   1.157       .  T
C1573      C1574   1.396       .  A
C1574      C1575   1.393       .  A
C1574      H1579   1.086       .  S
C1575      C1576   1.418       .  A
C1575      C1582   1.444       .  S
C1577      C1578   1.400       .  A
C1577      H1580   1.084       .  S
C1578      C1581   1.444       .  S
C1581      N1583   1.157       .  T
C1582      N1584   1.157       .  T
C1585      C1590   1.410       .  A
C1586      C1587   1.395       .  A
C1586      H1591   1.084       .  S
C1587      C1594   1.444       .  S
C1588      C1589   1.404       .  A
C1589      C1590   1.404       .  A
C1589      H1592   1.085       .  S
C1590      C1593   1.441       .  S
C1593      N1595   1.157       .  T
C1594      N1596   1.157       .  T
C1597      C1598   1.401       .  A
C1598      C1599   1.405       .  A
C1598      H1603   1.079       .  S
C1599      C1600   1.418       .  A
C1599      C1606   1.440       .  S
C1601      C1602   1.399       .  A
C1601      H1604   1.074       .  S
C1602      C1605   1.443       .  S
C1605      N1607   1.157       .  T
C1606      N1608   1.158       .  T
C1609      C1614   1.405   1_455  A
C1610      C1611   1.404       .  A
C1610      H1615   1.085       .  S
C1611      C1618   1.442       .  S
C1612      C1613   1.400   1_455  A
C1613      C1614   1.394       .  A
C1613      H1616   1.069       .  S
C1614      C1617   1.445       .  S
C1617      N1619   1.157       .  T
C1618      N1620   1.157       .  T
C1621      C1622   1.402       .  A
C1622      C1623   1.404       .  A
C1622      H1627   1.085       .  S
C1623      C1624   1.414       .  A
C1623      C1630   1.443       .  S
C1625      C1626   1.405       .  A
C1625      H1628   1.083       .  S
C1626      C1629   1.444       .  S
C1629      N1631   1.157       .  T
C1630      N1632   1.157       .  T
