geometry optimzed in LAMMPS
_audit_creation_date              2020-11-30 
_audit_creation_method            'lammps2cif' 
_symmetry_space_group_name_H-M    'P1' 
_symmetry_Int_Tables_number       1 
_symmetry_cell_setting            triclinic 
loop_ 
_symmetry_equiv_pos_as_xyz 
  x,y,z 
_cell_length_a                    30.04835633 
_cell_length_b                    36.83836632536148 
_cell_length_c                    50.215969183628275 
_cell_angle_alpha                 91.39983160122758 
_cell_angle_beta                  90.1701832989487 
_cell_angle_gamma                 115.36161874084048 
loop_ 
_atom_site_label 
_atom_site_type_symbol 
_atom_site_fract_x 
_atom_site_fract_y 
_atom_site_fract_z 
_atom_site_charge 
O1          O  0.41872977  0.15293081  0.86935758    -0.82400
O2          O  0.31016783  0.24295936  0.81024812    -0.67100
O3          O  0.34859339  0.18048004  0.85629269    -1.13700
C4          C  0.26074236  0.07193255  0.79898546     1.04500
O5          O  0.23819157  0.19504143  0.79613473    -0.80300
O6          O  0.21764682  0.13881666  0.83449917    -0.67900
Ni7        Ni  0.41664109  0.20358631  0.86723526     1.34900
C8          C  0.22441002  0.11598738  0.85101657     0.83200
O9          O  0.35206444  0.25701213  0.85771482    -0.80800
O10         O  0.42435441  0.25815412  0.86846783    -0.91100
C11         C  0.26856226  0.23169482  0.79884406     0.82800
O12         O  0.43993251  0.20857621  0.83168623    -0.69300
O13         O  0.23243840  0.08940651  0.79785927    -0.88600
C14         C  0.43231696  0.22997252  0.81445814     0.83700
C15         C  0.39515841  0.27479657  0.86763887     1.05200
H16         H  0.32840222  0.17190851  0.79367360     0.37000
O17         O  0.30829782  0.16622296  0.80945631    -1.11200
O18         O  0.26347160  0.11022631  0.85098455    -0.67900
Ni19       Ni  0.32644973  0.13417197  0.83271302     1.26300
O20         O  0.39337004  0.23595970  0.81456394    -0.68100
O21         O  0.30449050  0.08927319  0.80815728    -0.80400
C22         C  0.38872785  0.11616078  0.86770240     0.83000
O23         O  0.34696983  0.10391241  0.85617059    -0.67600
Ni24       Ni  0.24016005  0.14389756  0.79868643     1.27400
Ni25       Ni  0.33054144  0.21238122  0.83314493     1.26100
H26         H  0.32832844  0.17472291  0.87206469     0.37600
C27         C  0.18275855  0.40624147  0.76257982     0.85000
C28         C  0.18275746  0.40106872  0.73229348    -0.55200
C29         C  0.16492982  0.36205741  0.72332324     0.07900
C30         C  0.14830791  0.33145640  0.74580930     0.18900
C31         C  0.12922231  0.38009013  0.77082441    -0.56000
C32         C  0.11113023  0.34094851  0.76204863     0.08000
C33         C  0.21155631  0.38351059  0.77314121    -0.55500
C34         C  0.19398799  0.34423883  0.76435031     0.08600
H35         H  0.19570286  0.42636269  0.71910073     0.13100
H36         H  0.13252175  0.29980833  0.73854582    -0.01100
H37         H  0.10838446  0.39056910  0.78400791     0.13400
H38         H  0.24325103  0.39772064  0.78632840     0.13200
C39         C  0.47263962  0.44267051  0.90373524     0.85000
C40         C  0.44470643  0.46693305  0.89482199    -0.55200
C41         C  0.46700850  0.00716039  0.90411850     0.07900
C42         C  0.01251110  0.01772403  0.92059741     0.18900
C43         C  0.03134248  0.47072371  0.89524289    -0.56000
C44         C  0.04664579  0.00729341  0.90215907     0.08000
C45         C  0.47537352  0.44697670  0.93416255    -0.55500
C46         C  0.99776508  0.98662417  0.94277073     0.08600
H47         H  0.41504423  0.45567198  0.88033525     0.13100
H48         H  0.02984057  0.04896045  0.92862427    -0.01100
H49         H  0.05076500  0.45929309  0.88170150     0.13400
H50         H  0.46345067  0.42123247  0.94693422     0.13200
O51         O  0.12794552  0.02628562  0.47523752    -0.82400
O52         O  0.43419744  0.43653013  0.52391879    -0.67100
O53         O  0.03309306  0.49650654  0.47378556    -1.13700
C54         C  0.05068444  0.10633775  0.53816324     1.04500
O55         O  0.40707529  0.48335488  0.52431104    -0.80300
O56         O  0.44167033  0.04848021  0.50684054    -0.67900
Ni57       Ni  0.08120893  0.47885006  0.46236962     1.34900
C58         C  0.46724923  0.06352953  0.48652487     0.83200
O59         O  0.46143095  0.41649175  0.47692876    -0.80800
O60         O  0.03195238  0.42495225  0.45538310    -0.91100
C61         C  0.40164169  0.44842660  0.53023539     0.82800
O62         O  0.09646613  0.46326057  0.49581306    -0.69300
O63         O  0.00635193  0.08523456  0.54504826    -0.88600
C64         C  0.06928364  0.44668715  0.51533428     0.83700
C65         C  0.48691790  0.40260885  0.46339946     1.05200
H66         H  0.02098491  0.01114241  0.54176300     0.37000
O67         O  0.00353250  0.01324450  0.52615350    -1.11200
O68         O  0.01010124  0.06387958  0.48182555    -0.67900
Ni69       Ni  0.05133950  0.04470167  0.50116169     1.26300
O70         O  0.02698166  0.44630020  0.51848475    -0.68100
O71         O  0.07457941  0.09299085  0.52289008    -0.80400
C72         C  0.13317595  0.06119845  0.46942821     0.83000
O73         O  0.10048312  0.07289310  0.47571002    -0.67600
Ni74       Ni  0.45784196  0.03244211  0.53981148     1.27400
Ni75       Ni  0.48420099  0.46454377  0.49874043     1.26100
H76         H  0.00716903  0.99808980  0.46568687     0.37600
C77         C  0.39755330  0.23294197  0.43074317     0.85000
C78         C  0.34365099  0.20861618  0.43875651    -0.55200
C79         C  0.32256598  0.16973508  0.42929009     0.07900
C80         C  0.35869336  0.15835199  0.41318449     0.18900
C81         C  0.42380929  0.20803480  0.44111825    -0.56000
C82         C  0.40334208  0.16892516  0.43203708     0.08000
C83         C  0.39748931  0.22829678  0.40040843    -0.55500
C84         C  0.37751033  0.18941545  0.39094597     0.08600
H85         H  0.32482637  0.22018771  0.45247053     0.13100
H86         H  0.34338077  0.12682038  0.40562842    -0.01100
H87         H  0.45424647  0.21964840  0.45539441     0.13400
H88         H  0.41143819  0.25399896  0.38758079     0.13200
C89         C  0.14028998  0.27643866  0.57119299     0.85000
C90         C  0.13873586  0.28104746  0.60150632    -0.55200
C91         C  0.15780955  0.31990153  0.61093328     0.07900
C92         C  0.17740296  0.35111538  0.58880598     0.18900
C93         C  0.11393239  0.30097002  0.56022505    -0.56000
C94         C  0.13350980  0.34020920  0.56925226     0.08000
C95         C  0.19456571  0.30137868  0.56405435    -0.55500
C96         C  0.21472683  0.34025208  0.57348183     0.08600
H97         H  0.12426496  0.25541459  0.61439450     0.13100
H98         H  0.19209216  0.38260798  0.59643231    -0.01100
H99         H  0.08374735  0.28879097  0.54581366     0.13400
H100        H  0.21452185  0.29077233  0.55056560     0.13200
O101        O  0.28415053  0.31790264  0.20192907    -0.82400
O102        O  0.17481945  0.40893036  0.14395860    -0.67100
O103        O  0.21365865  0.34628532  0.18985757    -1.13700
C104        C  0.12989692  0.23915505  0.12970384     1.04500
O105        O  0.10350779  0.36074773  0.12915305    -0.80300
O106        O  0.07916081  0.30040428  0.16473098    -0.67900
Ni107      Ni  0.28226578  0.36876723  0.19967179     1.34900
C108        C  0.08742488  0.28007445  0.18260706     0.83200
O109        O  0.21784452  0.42297247  0.19139104    -0.80800
O110        O  0.29046955  0.42338348  0.20054397    -0.91100
C111        C  0.13342036  0.39746583  0.13225423     0.82800
O112        O  0.30302321  0.37264623  0.16363401    -0.69300
O113        O  0.10138759  0.25620094  0.12695593    -0.88600
C114        C  0.29594228  0.39527255  0.14716377     0.83700
C115        C  0.26189186  0.44063661  0.20014359     1.05200
H116        H  0.19506281  0.33833621  0.12756982     0.37000
O117        O  0.17399195  0.33239765  0.14285395    -1.11200
O118        O  0.12783261  0.27635578  0.18393660    -0.67900
Ni119      Ni  0.19149661  0.30018863  0.16631647     1.26300
O120        O  0.25777601  0.40216513  0.14806226    -0.68100
O121        O  0.17107172  0.25585855  0.14181838    -0.80400
C122        C  0.25333167  0.28132671  0.20099970     0.83000
O123        O  0.21114848  0.26961137  0.19004604    -0.67600
Ni124      Ni  0.10698278  0.31001915  0.12998640     1.27400
Ni125      Ni  0.19546817  0.37830335  0.16675991     1.26100
H126        H  0.19400860  0.34062488  0.20573017     0.37600
C127        C  0.05443444  0.07165782  0.09483962     0.85000
C128        C  0.04981789  0.06606645  0.06457130    -0.55200
C129        C  0.02879053  0.02696625  0.05570514     0.07900
C130        C  0.50833088  0.49442254  0.07925353     0.18900
C131        C  0.49903650  0.04541443  0.10502918    -0.56000
C132        C  0.47141476  0.50353572  0.09595212     0.08000
C133        C  0.08258668  0.04746208  0.10336528    -0.55500
C134        C  0.05433236  0.50727894  0.09864747     0.08600
H135        H  0.06167416  0.09124852  0.05130411     0.13100
H136        H  0.49282767  0.46282208  0.07182087    -0.01100
H137        H  0.48034395  0.05761689  0.11851575     0.13400
H138        H  0.11610399  0.05958496  0.11510991     0.13200
C139        C  0.33908318  0.10816556  0.23711694     0.85000
C140        C  0.31052182  0.13204738  0.22850467    -0.55200
C141        C  0.32882252  0.17065253  0.23845222     0.07900
C142        C  0.37613078  0.18220366  0.25561187     0.18900
C143        C  0.39196244  0.13398963  0.22791613    -0.56000
C144        C  0.41153319  0.17291187  0.23741859     0.08000
C145        C  0.34185544  0.11190874  0.26752434    -0.55500
C146        C  0.36110454  0.15046457  0.27746119     0.08600
H147        H  0.28063585  0.12038806  0.21409086     0.13100
H148        H  0.39253653  0.21331170  0.26385972    -0.01100
H149        H  0.41129653  0.12296719  0.21402669     0.13400
H150        H  0.32986435  0.08590399  0.28006447     0.13200
C151        C  0.33866697  0.45388892  0.11794633    -0.14800
C152        C  0.33612527  0.41817260  0.12871887     0.07300
C153        C  0.37636969  0.40856121  0.12541478    -0.14800
C154        C  0.41933654  0.43530212  0.11318919    -0.14800
C155        C  0.42312187  0.47236392  0.10437813     0.07300
C156        C  0.38190090  0.48087546  0.10611789    -0.14800
H157        H  0.30848606  0.46233147  0.12024854     0.11300
H158        H  0.37564117  0.38134754  0.13353257     0.11300
H159        H  0.45069698  0.42812971  0.11223510     0.11300
H160        H  0.39291459  0.01508290  0.10206653     0.11300
C161        C  0.14105505  0.17618375  0.12386454    -0.14800
C162        C  0.11300959  0.19758922  0.11935371     0.07300
C163        C  0.06740828  0.17829187  0.10596255    -0.14800
C164        C  0.04954760  0.13800085  0.09802087    -0.14800
C165        C  0.07649390  0.11581248  0.10343685     0.07300
C166        C  0.12324283  0.13589658  0.11592829    -0.14800
H167        H  0.17663322  0.19039823  0.13386817     0.11300
H168        H  0.04503615  0.19410775  0.10194286     0.11300
H169        H  0.01408968  0.12383611  0.08789391     0.11300
H170        H  0.14714210  0.12160530  0.11965772     0.11300
C171        C  0.09056305  0.42024208  0.09857309    -0.14800
C172        C  0.11779391  0.42757169  0.12245407     0.07300
C173        C  0.12603225  0.46198227  0.13797373    -0.14800
C174        C  0.10540776  0.48773673  0.13034261    -0.14800
C175        C  0.07734480  0.48029401  0.10653693     0.07300
C176        C  0.07111987  0.44660271  0.09050943    -0.14800
H177        H  0.08412788  0.39391804  0.08619079     0.11300
H178        H  0.14639126  0.46789544  0.15665634     0.11300
H179        H  0.11357078  0.01155314  0.14103874     0.11300
H180        H  0.05124265  0.44033587  0.07172031     0.11300
C181        C  0.33357015  0.24038170  0.23518992    -0.14800
C182        C  0.30653908  0.19868775  0.23151746     0.07300
C183        C  0.25871423  0.18425059  0.22007394    -0.14800
C184        C  0.24052985  0.21076419  0.21057156    -0.14800
C185        C  0.26925031  0.25232174  0.21282077     0.07300
C186        C  0.31521793  0.26670719  0.22602852    -0.14800
H187        H  0.36973216  0.25346763  0.24430565     0.11300
H188        H  0.23506323  0.15247972  0.21805003     0.11300
H189        H  0.20449872  0.19872379  0.20103961     0.11300
H190        H  0.33801211  0.29864208  0.22873961     0.11300
C191        C  0.24843983  0.00254952  0.21136998    -0.14800
C192        C  0.27813927  0.98185771  0.21205905     0.07300
C193        C  0.32711529  0.00240615  0.22136048    -0.14800
C194        C  0.34626970  0.04289267  0.22916494    -0.14800
C195        C  0.31738483  0.06430483  0.22751748     0.07300
C196        C  0.26754343  0.04306852  0.21935229    -0.14800
H197        H  0.21383258  0.48874760  0.20512220     0.11300
H198        H  0.35107416  0.98733802  0.22238265     0.11300
H199        H  0.38395983  0.05758227  0.23646506     0.11300
H200        H  0.24235743  0.05691645  0.21961591     0.11300
C201        C  0.00599383  0.26613495  0.20402850    -0.14800
C202        C  0.04668399  0.25697676  0.20102156     0.07300
C203        C  0.04469212  0.22197915  0.21272753    -0.14800
C204        C  0.00194496  0.19551423  0.22546361    -0.14800
C205        C  0.45948161  0.20377741  0.22792289     0.07300
C206        C  0.46258067  0.24000272  0.21785434    -0.14800
H207        H  0.00608805  0.29269582  0.19519616     0.11300
H208        H  0.07507594  0.21374249  0.21064624     0.11300
H209        H  0.49948167  0.16773986  0.23377245     0.11300
H210        H  0.43110776  0.24692477  0.21853848     0.11300
C211        C  0.40885937  0.20434358  0.34413676    -0.14800
C212        C  0.37400168  0.17882635  0.36194699     0.07300
C213        C  0.33523584  0.14364107  0.35174382    -0.14800
C214        C  0.33113075  0.13442833  0.32440411    -0.14800
C215        C  0.36570042  0.16019196  0.30658415     0.07300
C216        C  0.40465095  0.19519682  0.31679593    -0.14800
H217        H  0.43988973  0.23126481  0.35130121     0.11300
H218        H  0.30720547  0.12367558  0.36471868     0.11300
H219        H  0.30013191  0.10750852  0.31719165     0.11300
H220        H  0.43249792  0.21523137  0.30375942     0.11300
C221        C  0.19104527  0.12957971  0.45432162    -0.14800
C222        C  0.17908652  0.08859922  0.45656773     0.07300
C223        C  0.21203367  0.07375768  0.44677964    -0.14800
C224        C  0.25738079  0.09968060  0.43656520    -0.14800
C225        C  0.27129808  0.14123917  0.43622961     0.07300
C226        C  0.23656614  0.15559020  0.44418287    -0.14800
H227        H  0.16585388  0.14174836  0.46105983     0.11300
H228        H  0.20324934  0.04205515  0.44752516     0.11300
H229        H  0.28183860  0.08688334  0.42995132     0.11300
H230        H  0.24460523  0.18706444  0.44302022     0.11300
C231        C  0.41256134  0.33843185  0.45290467    -0.14800
C232        C  0.46387225  0.36001628  0.45417262     0.07300
C233        C  0.49332161  0.34015101  0.44736533    -0.14800
C234        C  0.47183235  0.29931567  0.44010476    -0.14800
C235        C  0.42036061  0.27707678  0.43981737     0.07300
C236        C  0.39107413  0.29774414  0.44535214    -0.14800
H237        H  0.38893729  0.35313389  0.45743414     0.11300
H238        H  0.03284987  0.35769697  0.44415708     0.11300
H239        H  0.49558792  0.28508816  0.43471837     0.11300
H240        H  0.35144869  0.28315527  0.44335968     0.11300
C241        C  0.48261592  0.11708915  0.45310474    -0.14800
C242        C  0.44919692  0.08544462  0.46815232     0.07300
C243        C  0.39982208  0.07967151  0.46905481    -0.14800
C244        C  0.38476551  0.10592005  0.45629861    -0.14800
C245        C  0.41861857  0.13859835  0.44245161     0.07300
C246        C  0.46754160  0.14369871  0.44060138    -0.14800
H247        H  0.02442481  0.12922873  0.45642225     0.11300
H248        H  0.37326117  0.05596477  0.48071579     0.11300
H249        H  0.34733411  0.10211337  0.45871567     0.11300
H250        H  0.49431800  0.16890696  0.43012058     0.11300
C251        C  0.27925619  0.41058211  0.56549614    -0.14800
C252        C  0.26589562  0.36914296  0.56643885     0.07300
C253        C  0.30075545  0.35501747  0.55830679    -0.14800
C254        C  0.34513527  0.38074576  0.54693328    -0.14800
C255        C  0.35617242  0.42138584  0.54375207     0.07300
C256        C  0.32346986  0.43627377  0.55391705    -0.14800
H257        H  0.25525129  0.42339252  0.57278536     0.11300
H258        H  0.29362788  0.32382989  0.56018438     0.11300
H259        H  0.37025724  0.36857533  0.54008350     0.11300
H260        H  0.33172024  0.46781645  0.55261828     0.11300
C261        C  0.04583725  0.16742077  0.55856429    -0.14800
C262        C  0.07430761  0.14897073  0.54754500     0.07300
C263        C  0.12479040  0.17227336  0.54422861    -0.14800
C264        C  0.14641188  0.21301239  0.55165248    -0.14800
C265        C  0.11788152  0.23213232  0.56202537     0.07300
C266        C  0.06733367  0.20836084  0.56568675    -0.14800
H267        H  0.00663522  0.15037659  0.56131704     0.11300
H268        H  0.14784596  0.15894747  0.53603077     0.11300
H269        H  0.18572708  0.22837325  0.54962836     0.11300
H270        H  0.04438272  0.22158723  0.57415333     0.11300
C271        C  0.05212091  0.38962800  0.54625702    -0.14800
C272        C  0.08638475  0.42394441  0.53368938     0.07300
C273        C  0.13651643  0.43193539  0.53499578    -0.14800
C274        C  0.15170014  0.40548362  0.54748744    -0.14800
C275        C  0.11731245  0.37025766  0.55885543     0.07300
C276        C  0.06739220  0.36284836  0.55847495    -0.14800
H277        H  0.01314584  0.38215508  0.54521644     0.11300
H278        H  0.16383578  0.45772153  0.52524050     0.11300
H279        H  0.19000064  0.41132615  0.54666170     0.11300
H280        H  0.04009093  0.33581021  0.56703368     0.11300
C281        C  0.46916518  0.47106990  0.99137184    -0.14800
C282        C  0.00540019  0.99719762  0.97170015     0.07300
C283        C  0.04772790  0.03046049  0.98089500    -0.14800
C284        C  0.05563595  0.03970221  0.00816087    -0.14800
C285        C  0.02124790  0.01598105  0.02683926     0.07300
C286        C  0.47649933  0.48026506  0.01867594    -0.14800
H287        H  0.43697592  0.44454013  0.98482192     0.11300
H288        H  0.07531987  0.04884172  0.96708519     0.11300
H289        H  0.08906385  0.06520627  0.01463752     0.11300
H290        H  0.44965644  0.46076189  0.03238391     0.11300
C291        C  0.12456164  0.31598820  0.68414768    -0.14800
C292        C  0.16339089  0.35081720  0.69464241     0.07300
C293        C  0.20067945  0.37508775  0.67753037    -0.14800
C294        C  0.19883672  0.36501293  0.65041785    -0.14800
C295        C  0.15968503  0.33047771  0.63980826     0.07300
C296        C  0.12263974  0.30595247  0.65700342    -0.14800
H297        H  0.09500313  0.29699654  0.69675845     0.11300
H298        H  0.23171487  0.40165687  0.68516038     0.11300
H299        H  0.22855739  0.38395049  0.63788128     0.11300
H300        H  0.09158217  0.27937349  0.64941959     0.11300
C301        C  0.38505551  0.33830162  0.87444584    -0.14800
C302        C  0.41338837  0.31681850  0.87766176     0.07300
C303        C  0.46009226  0.33619676  0.89000147    -0.14800
C304        C  0.98481132  0.37939436  0.89713342    -0.14800
C305        C  0.45104410  0.39869924  0.89427009     0.07300
C306        C  0.40333908  0.37852979  0.88282434    -0.14800
H307        H  0.34863888  0.32406052  0.86538283     0.11300
H308        H  0.48270627  0.32032086  0.89312507     0.11300
H309        H  0.02171507  0.39355650  0.90558730     0.11300
H310        H  0.37886147  0.39274711  0.88066535     0.11300
C311        C  0.14370671  0.10213541  0.87274109    -0.14800
C312        C  0.18305626  0.09171548  0.86856134     0.07300
C313        C  0.17867531  0.05448512  0.87765801    -0.14800
C314        C  0.13501910  0.02753012  0.88933569    -0.14800
C315        C  0.09507237  0.03744746  0.89261267     0.07300
C316        C  0.10041806  0.07541232  0.88475446    -0.14800
H317        H  0.14556792  0.13030376  0.86570480     0.11300
H318        H  0.20791212  0.04517095  0.87437501     0.11300
H319        H  0.13202084  0.99849367  0.89522464     0.11300
H320        H  0.07012251  0.08361956  0.88639639     0.11300
C321        C  0.37653938  0.04598381  0.87772195    -0.14800
C322        C  0.40530242  0.08755481  0.87935463     0.07300
C323        C  0.45201570  0.10239625  0.89175626    -0.14800
C324        C  0.47108274  0.07645448  0.90061560    -0.14800
C325        C  0.44401822  0.03474088  0.89751114     0.07300
C326        C  0.39546554  0.01984406  0.88696906    -0.14800
H327        H  0.33990491  0.03365614  0.86889972     0.11300
H328        H  0.47490593  0.13438260  0.89399556     0.11300
H329        H  0.00813586  0.08937303  0.90858848     0.11000
H330        H  0.37073441  0.48867019  0.88317529     0.11300
C331        C  0.26596077  0.29833479  0.80304246    -0.14800
C332        C  0.25351173  0.26203765  0.78884006     0.07300
C333        C  0.22355230  0.25363072  0.76595483    -0.14800
C334        C  0.20585067  0.28088723  0.75751910    -0.14800
C335        C  0.21615496  0.31660666  0.77233910     0.07300
C336        C  0.24694011  0.32505763  0.79514079    -0.14800
H337        H  0.28862432  0.30521898  0.82094773     0.11300
H338        H  0.21386485  0.22588930  0.75452848     0.11300
H339        H  0.18419076  0.27354257  0.73932601     0.11300
H340        H  0.25548779  0.35163797  0.80753870     0.11300
C341        C  0.47452687  0.28680510  0.78360328    -0.14800
C342        C  0.47268603  0.25221234  0.79574661     0.07300
C343        C  0.01591816  0.24648275  0.79224025    -0.14800
C344        C  0.05891153  0.27297305  0.77985774    -0.14800
C345        C  0.06275083  0.30987559  0.77065861     0.07300
C346        C  0.02143540  0.31831839  0.77213475    -0.14800
H347        H  0.44382353  0.29474553  0.78507470     0.11300
H348        H  0.51355814  0.21684520  0.80245741     0.11300
H349        H  0.09025064  0.26575657  0.77908574     0.11300
H350        H  0.02328859  0.34637879  0.76489640     0.11300
C351        C  0.27489688  0.51441597  0.78143969    -0.14800
C352        C  0.23975827  0.02935900  0.79051467     0.07300
C353        C  0.19254193  0.51042118  0.78320318    -0.14800
C354        C  0.17300780  0.46990949  0.77543543    -0.14800
C355        C  0.20390233  0.45047534  0.77136826     0.07300
C356        C  0.25531308  0.47386569  0.77330789    -0.14800
H357        H  0.30801244  0.02965697  0.77677686     0.11300
H358        H  0.16733017  0.52395009  0.78670316     0.11300
H359        H  0.13361505  0.45420762  0.77234741     0.11300
H360        H  0.28060170  0.46084274  0.76864037     0.11300
O361        O  0.42112034  0.65449538  0.86752922    -0.82400
O362        O  0.30935468  0.74565933  0.81230276    -0.67100
O363        O  0.34953113  0.68181043  0.85619816    -1.13700
C364        C  0.26311710  0.57530664  0.79652785     1.04500
O365        O  0.23785315  0.69750502  0.79770349    -0.80300
O366        O  0.21809254  0.63923582  0.83452999    -0.67900
Ni367      Ni  0.41755431  0.70486737  0.86712906     1.34900
C368        C  0.22617198  0.61685476  0.85089419     0.83200
O369        O  0.35176024  0.75826087  0.85961320    -0.80800
O370        O  0.42402458  0.75896756  0.86994391    -0.91100
C371        C  0.26780353  0.73422584  0.80083302     0.82800
O372        O  0.44049953  0.71237405  0.83156022    -0.69300
O373        O  0.23410735  0.59223091  0.79617314    -0.88600
C374        C  0.43259460  0.73475929  0.81522572     0.83700
C375        C  0.39509237  0.77586850  0.86929873     1.05200
H376        H  0.32908787  0.67618631  0.79367927     0.37000
O377        O  0.30895442  0.66940624  0.80949734    -1.11200
O378        O  0.26536118  0.61129193  0.85009013    -0.67900
Ni379      Ni  0.32800203  0.63665543  0.83156620     1.26300
O380        O  0.39321049  0.74002123  0.81570174    -0.68100
O381        O  0.30662710  0.59287657  0.80604822    -0.80400
C382        C  0.39135946  0.61769683  0.86524595     0.83000
O383        O  0.34953806  0.60576734  0.85383332    -0.67600
Ni384      Ni  0.24080429  0.64656886  0.79871289     1.27400
Ni385      Ni  0.33057041  0.71453743  0.83418523     1.26100
H386        H  0.32936322  0.67504857  0.87195665     0.37600
C387        C  0.17455325  0.90375463  0.76481474     0.85000
C388        C  0.17544311  0.89871313  0.73453842    -0.55200
C389        C  0.15880067  0.85978523  0.72557600     0.07900
C390        C  0.14240729  0.82915629  0.74807099     0.18900
C391        C  0.12090860  0.87692173  0.77251318    -0.56000
C392        C  0.10406434  0.83789500  0.76377191     0.08000
C393        C  0.20396916  0.88194562  0.77573229    -0.55500
C394        C  0.18773328  0.84290436  0.76696218     0.08600
H395        H  0.18782148  0.92402079  0.72136968     0.13100
H396        H  0.12787303  0.79744354  0.74098217    -0.01100
H397        H  0.09868501  0.88634103  0.78531584     0.13400
H398        H  0.23580069  0.89694699  0.78878402     0.13200
C399        C  0.47723441  0.94480054  0.90281531     0.85000
C400        C  0.44824175  0.96838365  0.89454199    -0.55200
C401        C  0.46367932  0.50574199  0.90437627     0.07900
C402        C  0.01527710  0.51946238  0.92228348     0.18900
C403        C  0.02588738  0.96812634  0.89309558    -0.56000
C404        C  0.05104423  0.50979652  0.90452763     0.08000
C405        C  0.48168851  0.94928167  0.93314781    -0.55500
C406        C  0.99996695  0.48802634  0.94434582     0.08600
H407        H  0.41753854  0.95626552  0.88063096     0.13100
H408        H  0.03137024  0.55071221  0.93035013    -0.01100
H409        H  0.04427180  0.95617403  0.87923236     0.13400
H410        H  0.47050934  0.92363626  0.94597955     0.13200
O411        O  0.13488374  0.53080939  0.46817828    -0.82400
O412        O  0.43330322  0.93588435  0.53402720    -0.67100
O413        O  0.02599803  0.99541598  0.48053007    -1.13700
C414        C  0.05728909  0.60576694  0.53432374     1.04500
O415        O  0.40311213  0.98109356  0.53424836    -0.80300
O416        O  0.45267915  0.55760681  0.50413738    -0.67900
Ni417      Ni  0.07148845  0.97751281  0.46574486     1.34900
C418        C  0.47297282  0.56801591  0.48169641     0.83200
O419        O  0.45879661  0.91422213  0.48692536    -0.80800
O420        O  0.01878022  0.92742331  0.45486379    -0.91100
C421        C  0.39937004  0.94649118  0.53981847     0.82800
O422        O  0.08332004  0.95295981  0.49630779    -0.69300
O423        O  0.01699171  0.58216456  0.54489884    -0.88600
C424        C  0.06175687  0.94159701  0.51832750     0.83700
C425        C  0.47784607  0.90399576  0.46700649     1.05200
H426        H  0.02921513  0.51228550  0.53402570     0.37000
O427        O  0.01016743  0.51458476  0.51920104    -1.11200
O428        O  0.01068049  0.56201196  0.47428712    -0.67900
Ni429      Ni  0.05577213  0.54660297  0.49354669     1.26300
O430        O  0.02426972  0.94720289  0.52517449    -0.68100
O431        O  0.07653897  0.59589697  0.51436605    -0.80400
C432        C  0.13737499  0.56462029  0.46144999     0.83000
O433        O  0.10333263  0.57502252  0.46737767    -0.67600
Ni434      Ni  0.46386696  0.53170821  0.53424643     1.27400
Ni435      Ni  0.48074407  0.96384843  0.50769431     1.26100
H436        H  0.01562153  0.49815509  0.45801006     0.37600
C437        C  0.40059080  0.73893329  0.42480450     0.85000
C438        C  0.34577712  0.71470883  0.43082437    -0.55200
C439        C  0.32649683  0.67516084  0.42273317     0.07900
C440        C  0.36467391  0.66355923  0.40889658     0.18900
C441        C  0.42648915  0.71512824  0.43734519    -0.56000
C442        C  0.40764101  0.67561320  0.42911653     0.08000
C443        C  0.40327001  0.73260560  0.39451737    -0.55500
C444        C  0.38483941  0.69334484  0.38612793     0.08600
H445        H  0.32479245  0.72792065  0.44152806     0.13100
H446        H  0.35064551  0.63182407  0.40188630    -0.01100
H447        H  0.45605033  0.72810790  0.45206966     0.13400
H448        H  0.41533032  0.75636664  0.38029806     0.13200
C449        C  0.13421714  0.77137496  0.57470025     0.85000
C450        C  0.13296346  0.77771581  0.60499689    -0.55200
C451        C  0.15110891  0.81689429  0.61340721     0.07900
C452        C  0.17050513  0.84671463  0.59059454     0.18900
C453        C  0.10768131  0.79503835  0.56269050    -0.56000
C454        C  0.12686316  0.83456239  0.57089174     0.08000
C455        C  0.18872977  0.79563405  0.56802624    -0.55500
C456        C  0.20817357  0.83517151  0.57614212     0.08600
H457        H  0.12189794  0.75391426  0.61915611     0.13100
H458        H  0.18473635  0.87850246  0.59750886    -0.01100
H459        H  0.07759259  0.78202015  0.54827160     0.13400
H460        H  0.20945228  0.78250250  0.55699152     0.13200
O461        O  0.28770413  0.81879250  0.20005620    -0.82400
O462        O  0.17708754  0.90858947  0.14259420    -0.67100
O463        O  0.21595554  0.84611610  0.18857297    -1.13700
C464        C  0.13133321  0.73779310  0.13051051     1.04500
O465        O  0.10762339  0.85992322  0.12614656    -0.80300
O466        O  0.08584675  0.80373732  0.16441412    -0.67900
Ni467      Ni  0.28297662  0.86880530  0.20106747     1.34900
C468        C  0.09283002  0.78177778  0.18155859     0.83200
O469        O  0.21789121  0.92269652  0.19045470    -0.80800
O470        O  0.28768745  0.92224447  0.20502229    -0.91100
C471        C  0.13646164  0.89666760  0.12997867     0.82800
O472        O  0.31034433  0.87947719  0.16648138    -0.69300
O473        O  0.10322789  0.75525232  0.12853230    -0.88600
C474        C  0.30199294  0.90021183  0.14905055     0.83700
C475        C  0.25957262  0.93963901  0.20221995     1.05200
H476        H  0.19909714  0.83901706  0.12595255     0.37000
O477        O  0.17799082  0.83260857  0.14122947    -1.11200
O478        O  0.13199989  0.77627440  0.18214821    -0.67900
Ni479      Ni  0.19542700  0.80030511  0.16466835     1.26300
O480        O  0.26155415  0.90382359  0.14797517    -0.68100
O481        O  0.17481295  0.75544861  0.13999772    -0.80400
C482        C  0.25768810  0.78197006  0.19875082     0.83000
O483        O  0.21503789  0.76991214  0.18840969    -0.67600
Ni484      Ni  0.11046611  0.80942228  0.12907993     1.27400
Ni485      Ni  0.19799764  0.87829125  0.16550641     1.26100
H486        H  0.19493341  0.83977809  0.20392450     0.37600
C487        C  0.04259861  0.56885588  0.09778766     0.85000
C488        C  0.04245453  0.56458588  0.06743297    -0.55200
C489        C  0.02447996  0.52587542  0.05787344     0.07900
C490        C  0.51294861  0.99533526  0.07836904     0.18900
C491        C  0.48943016  0.54249447  0.10508719    -0.56000
C492        C  0.47838848  0.00622379  0.09610196     0.08000
C493        C  0.07151828  0.54619393  0.10782895    -0.55500
C494        C  0.06135142  0.00805635  0.09522491     0.08600
H495        H  0.05428532  0.59027996  0.05461346     0.13100
H496        H  0.49600434  0.96359814  0.07108520    -0.01100
H497        H  0.46820160  0.55209850  0.11850492     0.13400
H498        H  0.10355709  0.56048477  0.12083050     0.13200
C499        C  0.34593036  0.60958652  0.23311270     0.85000
C500        C  0.31753492  0.63342709  0.22417274    -0.55200
C501        C  0.33581821  0.67202353  0.23402704     0.07900
C502        C  0.38291279  0.68369760  0.25134299     0.18900
C503        C  0.39889108  0.63523361  0.22399119    -0.56000
C504        C  0.41837455  0.67417948  0.23339895     0.08000
C505        C  0.34835504  0.61351672  0.26351982    -0.55500
C506        C  0.36770422  0.65215273  0.27325088     0.08600
H507        H  0.28751583  0.62162481  0.20977945     0.13100
H508        H  0.39916234  0.71486724  0.25956934    -0.01100
H509        H  0.41832116  0.62418398  0.21018725     0.13400
H510        H  0.33613985  0.58768791  0.27623846     0.13200
C511        C  0.34673840  0.96013920  0.12091907    -0.14800
C512        C  0.34283436  0.92363613  0.13101013     0.07300
C513        C  0.38208973  0.91293238  0.12704833    -0.14800
C514        C  0.42497733  0.93882341  0.11429493    -0.14800
C515        C  0.42999584  0.97634395  0.10569523     0.07300
C516        C  0.39006026  0.98638767  0.10862649    -0.14800
H517        H  0.31749126  0.96951872  0.12393651     0.11300
H518        H  0.38040582  0.88516680  0.13474213     0.11300
H519        H  0.45532610  0.93047529  0.11257195     0.11300
H520        H  0.38378139  0.50911415  0.09920871     0.11300
C521        C  0.13874910  0.67669432  0.11221369    -0.14800
C522        C  0.11005864  0.69487180  0.12282131     0.07300
C523        C  0.05913899  0.67193026  0.12547746    -0.14800
C524        C  0.03705439  0.63149446  0.11775683    -0.14800
C525        C  0.06540710  0.61276520  0.10711275     0.07300
C526        C  0.11645331  0.63621776  0.10397219    -0.14800
H527        H  0.17797731  0.69396310  0.10967121     0.11300
H528        H  0.03610725  0.68536712  0.13357561     0.11300
H529        H  0.99764574  0.61590073  0.11958168     0.11300
H530        H  0.13918106  0.62307018  0.09513179     0.11300
C531        C  0.09250127  0.91853196  0.09629483    -0.14800
C532        C  0.12028828  0.92625382  0.12005535     0.07300
C533        C  0.12846527  0.96057379  0.13557470    -0.14800
C534        C  0.10849296  0.98651386  0.12773875    -0.14800
C535        C  0.08136633  0.97949690  0.10366012     0.07300
C536        C  0.07366441  0.94519306  0.08799506    -0.14800
H537        H  0.08549009  0.89189071  0.08413146     0.11300
H538        H  0.14856550  0.96644263  0.15434227     0.11300
H539        H  0.11041311  0.51270490  0.14367772     0.11300
H540        H  0.05347536  0.93899647  0.06928656     0.11300
C541        C  0.34151953  0.74159637  0.22927842    -0.14800
C542        C  0.31354579  0.69989435  0.22701592     0.07300
C543        C  0.26464815  0.68521683  0.21712135    -0.14800
C544        C  0.24572606  0.71156155  0.20818262    -0.14800
C545        C  0.27510828  0.75311993  0.20922615     0.07300
C546        C  0.32280315  0.76772689  0.22034314    -0.14800
H547        H  0.37839568  0.75476559  0.23742641     0.11300
H548        H  0.24068444  0.65340603  0.21616190     0.11300
H549        H  0.20845487  0.69941023  0.20023325     0.11300
H550        H  0.34636152  0.79965975  0.22191606     0.11300
C551        C  0.25277311  0.50395651  0.21000810    -0.14800
C552        C  0.28238594  0.48322775  0.20902148     0.07300
C553        C  0.33256201  0.50379290  0.21617596    -0.14800
C554        C  0.35283889  0.54442157  0.22363991    -0.14800
C555        C  0.32378577  0.56581235  0.22364245     0.07300
C556        C  0.27298996  0.54453907  0.21766026    -0.14800
H557        H  0.21032950  0.98739731  0.20478970     0.11300
H558        H  0.35640513  0.48855400  0.21597106     0.11300
H559        H  0.39133922  0.55907558  0.22951565     0.11300
H560        H  0.24808518  0.55859036  0.21941100     0.11300
C561        C  0.01000698  0.76606348  0.20074660    -0.14800
C562        C  0.05185138  0.75834079  0.19941611     0.07300
C563        C  0.05073195  0.72409571  0.21186238    -0.14800
C564        C  0.00773341  0.69707431  0.22398055    -0.14800
C565        C  0.46646214  0.70489787  0.22419288     0.07300
C566        C  0.47015116  0.74161849  0.21476931    -0.14800
H567        H  0.00932332  0.79179623  0.19109509     0.11300
H568        H  0.08208481  0.71691743  0.21090260     0.11300
H569        H  0.50561474  0.66803661  0.22933882     0.11300
H570        H  0.43886124  0.74864477  0.21526655     0.11300
C571        C  0.41817146  0.70519767  0.33969653    -0.14800
C572        C  0.38161602  0.68150251  0.35740973     0.07300
C573        C  0.34083183  0.64772277  0.34727160    -0.14800
C574        C  0.33637875  0.63816170  0.31997245    -0.14800
C575        C  0.37260701  0.66220562  0.30224798     0.07300
C576        C  0.41360257  0.69573866  0.31240204    -0.14800
H577        H  0.45048371  0.73107352  0.34695050     0.11300
H578        H  0.31160626  0.62935138  0.36028326     0.11300
H579        H  0.30396617  0.61242843  0.31265358     0.11300
H580        H  0.44251738  0.71435656  0.29931103     0.11300
C581        C  0.19287867  0.63291443  0.44479587    -0.14800
C582        C  0.18269013  0.59250488  0.44834177     0.07300
C583        C  0.21751860  0.57864582  0.44015143    -0.14800
C584        C  0.26302001  0.60506489  0.43056326    -0.14800
C585        C  0.27506517  0.64617027  0.42883372     0.07300
C586        C  0.23853000  0.65945981  0.43498551    -0.14800
H587        H  0.16629524  0.64426944  0.45036440     0.11300
H588        H  0.21035686  0.54739507  0.44198918     0.11300
H589        H  0.28919228  0.59307267  0.42583227     0.11300
H590        H  0.24529627  0.69051422  0.43283179     0.11300
C591        C  0.42646894  0.83000225  0.47175591    -0.14800
C592        C  0.45366720  0.86255490  0.45568877     0.07300
C593        C  0.46372891  0.85480117  0.42944799    -0.14800
C594        C  0.44744049  0.81553325  0.41942465    -0.14800
C595        C  0.42012563  0.78249221  0.43532108     0.07300
C596        C  0.41054415  0.79047315  0.46180667    -0.14800
H597        H  0.41928595  0.83505148  0.49231461     0.11300
H598        H  0.98948553  0.87814247  0.41561035     0.11300
H599        H  0.45826522  0.81195558  0.39947494     0.11300
H600        H  0.39058197  0.76595149  0.47486234     0.11300
C601        C  0.48744501  0.62298401  0.44909776    -0.14800
C602        C  0.45481717  0.59173791  0.46473963     0.07300
C603        C  0.40626302  0.58763616  0.46746632    -0.14800
C604        C  0.39094700  0.61430552  0.45531800    -0.14800
C605        C  0.42391121  0.64621303  0.44050023     0.07300
C606        C  0.47226446  0.65023268  0.43734254    -0.14800
H607        H  0.02827741  0.63183556  0.45037900     0.11300
H608        H  0.38039127  0.56437070  0.47968569     0.11300
H609        H  0.35381615  0.61099724  0.45846150     0.11300
H610        H  0.49837979  0.67471618  0.42603847     0.11300
C611        C  0.27127573  0.90515892  0.56777928    -0.14800
C612        C  0.25940104  0.86413463  0.56976437     0.07300
C613        C  0.29611934  0.85090503  0.56403116    -0.14800
C614        C  0.34227981  0.87761457  0.55490502    -0.14800
C615        C  0.35269861  0.91809241  0.55148139     0.07300
C616        C  0.31708495  0.93167245  0.55863812    -0.14800
H617        H  0.24500667  0.91709684  0.57234618     0.11300
H618        H  0.28928591  0.81985036  0.56628801     0.11300
H619        H  0.36929793  0.86642035  0.54999640     0.11300
H620        H  0.32413127  0.96287893  0.55667892     0.11300
C621        C  0.07014020  0.65568789  0.57119619    -0.14800
C622        C  0.08073868  0.64735729  0.54521904     0.07300
C623        C  0.10774002  0.67946043  0.52877056    -0.14800
C624        C  0.12353335  0.71916795  0.53818549    -0.14800
C625        C  0.11405283  0.72773930  0.56451880     0.07300
C626        C  0.08615986  0.69516130  0.58066153    -0.14800
H627        H  0.04824250  0.63153681  0.58410515     0.11300
H628        H  0.11501045  0.67390163  0.50832275     0.11300
H629        H  0.14347240  0.74332823  0.52487324     0.11300
H630        H  0.07470283  0.69927756  0.60036447     0.11300
C631        C  0.04681201  0.88660202  0.55073549    -0.14800
C632        C  0.07982174  0.91833581  0.53558536     0.07300
C633        C  0.12873899  0.92324611  0.53350921    -0.14800
C634        C  0.14391019  0.89648802  0.54552861    -0.14800
C635        C  0.11060595  0.86401460  0.55977591     0.07300
C636        C  0.06198515  0.85943430  0.56251517    -0.14800
H637        H  0.00864706  0.88150623  0.55225551     0.11300
H638        H  0.15490010  0.94698454  0.52170268     0.11300
H639        H  0.18110078  0.90001113  0.54249441     0.11300
H640        H  0.03564364  0.83450168  0.57339427     0.11300
C641        C  0.47446828  0.97357937  0.99001523    -0.14800
C642        C  0.00592444  0.49813460  0.97342187     0.07300
C643        C  0.04651066  0.53235276  0.98325731    -0.14800
C644        C  0.05291164  0.54105654  0.01065800    -0.14800
C645        C  0.01879614  0.51576358  0.02884393     0.07300
C646        C  0.48150313  0.98234355  0.01736037    -0.14800
H647        H  0.44168758  0.94773718  0.98321985     0.11300
H648        H  0.07398990  0.55194386  0.96986184     0.11300
H649        H  0.08499169  0.56736578  0.01762495     0.11300
H650        H  0.45390928  0.96325741  0.03090462     0.11300
C651        C  0.11943882  0.81308700  0.68669362    -0.14800
C652        C  0.15725145  0.84870377  0.69689696     0.07300
C653        C  0.19302807  0.87405913  0.67944883    -0.14800
C654        C  0.19086142  0.86404099  0.65230907    -0.14800
C655        C  0.15289205  0.82847114  0.64207260     0.07300
C656        C  0.11708542  0.80320107  0.65957721    -0.14800
H657        H  0.09086448  0.79331011  0.69949721     0.11300
H658        H  0.22322318  0.90139756  0.68682453     0.11300
H659        H  0.21955465  0.88372490  0.63953377     0.11300
H660        H  0.08665695  0.77593781  0.65231006     0.11300
C661        C  0.38450095  0.83865301  0.87958464    -0.14800
C662        C  0.41443792  0.81814574  0.87897751     0.07300
C663        C  0.46419481  0.83886441  0.88689541    -0.14800
C664        C  0.97863114  0.87710414  0.89688971    -0.14800
C665        C  0.45483655  0.90075993  0.89376461     0.07300
C666        C  0.40422081  0.87927972  0.88727337    -0.14800
H667        H  0.34579286  0.82331120  0.87418367     0.11300
H668        H  0.48827219  0.82384733  0.88704440     0.11300
H669        H  0.01574577  0.89143455  0.90506014     0.11300
H670        H  0.37906607  0.89312753  0.88856657     0.11300
C671        C  0.14747823  0.60427878  0.87450875    -0.14800
C672        C  0.18634441  0.59347847  0.86961351     0.07300
C673        C  0.18277855  0.55688572  0.87947265    -0.14800
C674        C  0.13981199  0.53048326  0.89206356    -0.14800
C675        C  0.09976945  0.54032625  0.89546103     0.07300
C676        C  0.10492588  0.57814008  0.88741698    -0.14800
H677        H  0.14892766  0.63217447  0.86719671     0.11300
H678        H  0.21186842  0.54747117  0.87596492     0.11300
H679        H  0.13716628  0.50169405  0.89828569     0.11300
H680        H  0.07480376  0.58649889  0.88937786     0.11300
C681        C  0.37810056  0.54710552  0.87460528    -0.14800
C682        C  0.40760433  0.58855649  0.87646088     0.07300
C683        C  0.45360795  0.60262579  0.88957757    -0.14800
C684        C  0.47073488  0.57598179  0.89956087    -0.14800
C685        C  0.44270303  0.53430077  0.89652697     0.07300
C686        C  0.39518450  0.52031042  0.88476122    -0.14800
H687        H  0.34199163  0.53534263  0.86517961     0.11300
H688        H  0.47704618  0.63450070  0.89192733     0.11300
H689        H  0.00926351  0.59046169  0.90849005     0.11000
H690        H  0.37181503  0.98802414  0.88546786     0.11300
C691        C  0.26113254  0.79915793  0.80623665    -0.14800
C692        C  0.25227418  0.76430986  0.79103418     0.07300
C693        C  0.22486723  0.75661588  0.76723950    -0.14800
C694        C  0.20552156  0.78285729  0.75900816    -0.14800
C695        C  0.21175185  0.81671610  0.77486234     0.07300
C696        C  0.24047199  0.82483493  0.79845164    -0.14800
H697        H  0.28194885  0.80545872  0.82478382     0.11300
H698        H  0.21821669  0.73007748  0.75503672     0.11300
H699        H  0.18565542  0.77624983  0.74021541     0.11300
H700        H  0.24586559  0.85019120  0.81150051     0.11300
C701        C  0.47770890  0.79596931  0.78827185    -0.14800
C702        C  0.47314964  0.75866627  0.79723227     0.07300
C703        C  0.00948778  0.74373309  0.79420569    -0.14800
C704        C  0.05222950  0.77000229  0.78157644    -0.14800
C705        C  0.05567985  0.80656050  0.77201661     0.07300
C706        C  0.01418945  0.81483074  0.77332518    -0.14800
H707        H  0.44860710  0.80541262  0.79164951     0.11300
H708        H  0.50985830  0.71939895  0.79953203     0.11300
H709        H  0.08373691  0.76299435  0.78098193     0.11300
H710        H  0.01578066  0.84266988  0.76581980     0.11300
C711        C  0.26885181  0.01198279  0.77928145    -0.14800
C712        C  0.24361841  0.53298524  0.78677390     0.07300
C713        C  0.18896492  0.00596805  0.79308650    -0.14800
C714        C  0.16743509  0.96577406  0.78481007    -0.14800
C715        C  0.19629091  0.94775218  0.77377040     0.07300
C716        C  0.24713259  0.97175454  0.77053795    -0.14800
H717        H  0.31446758  0.53126052  0.78339928     0.11300
H718        H  0.16565654  0.01880988  0.80164153     0.11300
H719        H  0.12811038  0.94980400  0.78674771     0.11300
H720        H  0.27019544  0.95912280  0.76144433     0.11300
O721        O  0.92271219  0.15522991  0.86779437    -0.82400
O722        O  0.81338971  0.24629301  0.81039933    -0.67100
O723        O  0.85212701  0.18336129  0.85590299    -1.13700
C724        C  0.76489338  0.07578605  0.79736166     1.04500
O725        O  0.74112627  0.19842041  0.79647201    -0.80300
O726        O  0.72004694  0.14088153  0.83405672    -0.67900
Ni727      Ni  0.92036537  0.20597705  0.86654110     1.34900
C728        C  0.72749273  0.11841798  0.85060339     0.83200
O729        O  0.85604512  0.26010939  0.85770837    -0.80800
O730        O  0.92798734  0.26046982  0.86849369    -0.91100
C731        C  0.77172041  0.23502900  0.79908602     0.82800
O732        O  0.94328704  0.21187935  0.83092141    -0.69300
O733        O  0.73607895  0.09283939  0.79649699    -0.88600
C734        C  0.93542484  0.23350210  0.81396805     0.83700
C735        C  0.89921407  0.27750936  0.86762331     1.05200
H736        H  0.83149893  0.17547203  0.79337789     0.37000
O737        O  0.81141713  0.16962863  0.80917355    -1.11200
O738        O  0.76683023  0.11306422  0.85042468    -0.67900
Ni739      Ni  0.82971971  0.13740119  0.83209967     1.26300
O740        O  0.89642192  0.23933918  0.81428854    -0.68100
O741        O  0.80804797  0.09306207  0.80731153    -0.80400
C742        C  0.89219090  0.11858732  0.86627003     0.83000
O743        O  0.85015460  0.10683667  0.85519867    -0.67600
Ni744      Ni  0.74330652  0.14726720  0.79830313     1.27400
Ni745      Ni  0.83392739  0.21556953  0.83304487     1.26100
H746        H  0.83203955  0.17746056  0.87174322     0.37600
C747        C  0.67779089  0.40406933  0.76332438     0.85000
C748        C  0.67858416  0.39916949  0.73304146    -0.55200
C749        C  0.66237034  0.36033813  0.72395214     0.07900
C750        C  0.64645275  0.32952042  0.74636501     0.18900
C751        C  0.62435127  0.37672906  0.77116817    -0.56000
C752        C  0.60788248  0.33766987  0.76236986     0.08000
C753        C  0.70772862  0.38254999  0.77410448    -0.55500
C754        C  0.69192913  0.34361862  0.76515169     0.08600
H755        H  0.69086123  0.42453326  0.71991515     0.13100
H756        H  0.63252541  0.29785438  0.73914414    -0.01100
H757        H  0.60226149  0.38607808  0.78417354     0.13400
H758        H  0.73939930  0.39743143  0.78729467     0.13200
C759        C  0.97827215  0.44514998  0.90423445     0.85000
C760        C  0.95008619  0.46901697  0.89513807    -0.55200
C761        C  0.96475116  0.00644490  0.90391791     0.07900
C762        C  0.51532552  0.01922316  0.92055597     0.18900
C763        C  0.52570377  0.46783830  0.89455841    -0.56000
C764        C  0.54985880  0.00951429  0.90188226     0.08000
C765        C  0.98057685  0.44929865  0.93465264    -0.55500
C766        C  0.50161664  0.98803242  0.94266062     0.08600
H767        H  0.92080979  0.45758148  0.88038281     0.13100
H768        H  0.53202174  0.05041833  0.92867920    -0.01100
H769        H  0.54486896  0.45614947  0.88102173     0.13400
H770        H  0.96863690  0.42349998  0.94738055     0.13200
O771        O  0.62782046  0.02679795  0.47558692    -0.82400
O772        O  0.93594195  0.43698822  0.52416810    -0.67100
O773        O  0.53252296  0.49577862  0.47389996    -1.13700
C774        C  0.55166827  0.10719371  0.53883271     1.04500
O775        O  0.90809888  0.48336747  0.52417198    -0.80300
O776        O  0.94104382  0.04743172  0.50482656    -0.67900
Ni777      Ni  0.58097622  0.47782068  0.46356676     1.34900
C778        C  0.96801749  0.06369921  0.48518217     0.83200
O779        O  0.96311206  0.41690180  0.47717097    -0.80800
O780        O  0.53224042  0.42326224  0.45809044    -0.91100
C781        C  0.90321422  0.44871995  0.53044420     0.82800
O782        O  0.59684051  0.46553117  0.49797858    -0.69300
O783        O  0.50796306  0.08594131  0.54659811    -0.88600
C784        C  0.56815649  0.44693801  0.51649726     0.83700
C785        C  0.98748939  0.40376600  0.46209535     1.05200
H786        H  0.52294751  0.01252690  0.54278597     0.37000
O787        O  0.50476112  0.01415319  0.52735467    -1.11200
O788        O  0.50886203  0.06312469  0.48248309    -0.67900
Ni789      Ni  0.55138284  0.04516616  0.50173759     1.26300
O790        O  0.52476849  0.44473759  0.51848728    -0.68100
O791        O  0.57473501  0.09398002  0.52287776    -0.80400
C792        C  0.63255017  0.06151679  0.46953966     0.83000
O793        O  0.59957309  0.07294792  0.47572748    -0.67600
Ni794      Ni  0.95638028  0.03163088  0.53812735     1.27400
Ni795      Ni  0.98545878  0.46512465  0.49879895     1.26100
H796        H  0.50656811  0.99752141  0.46694058     0.37600
C797        C  0.89695081  0.23364509  0.43062082     0.85000
C798        C  0.84313158  0.20920250  0.43875706    -0.55200
C799        C  0.82205506  0.17028624  0.42933728     0.07900
C800        C  0.85830242  0.15897495  0.41319929     0.18900
C801        C  0.92350774  0.20896952  0.44096503    -0.56000
C802        C  0.90320628  0.16976354  0.43199867     0.08000
C803        C  0.89665590  0.22883680  0.40029233    -0.55500
C804        C  0.87687401  0.18995380  0.39086570     0.08600
H805        H  0.82433107  0.22064104  0.45254685     0.13100
H806        H  0.84311975  0.12745522  0.40565758    -0.01100
H807        H  0.95430464  0.22096414  0.45500763     0.13400
H808        H  0.91038310  0.25450408  0.38743435     0.13200
C809        C  0.64199734  0.27734587  0.57145992     0.85000
C810        C  0.64017212  0.28193025  0.60175385    -0.55200
C811        C  0.65884729  0.32073627  0.61122881     0.07900
C812        C  0.67875438  0.35201980  0.58910983     0.18900
C813        C  0.61566287  0.30176943  0.56038543    -0.56000
C814        C  0.63492748  0.34104226  0.56939304     0.08000
C815        C  0.69627265  0.30229848  0.56450478    -0.55500
C816        C  0.71635662  0.34115843  0.57393097     0.08600
H817        H  0.62560122  0.25626007  0.61460688     0.13100
H818        H  0.69335214  0.38346842  0.59680424    -0.01100
H819        H  0.58543366  0.28933202  0.54601435     0.13400
H820        H  0.71644126  0.29166903  0.55123334     0.13200
O821        O  0.78314558  0.31713645  0.20121147    -0.82400
O822        O  0.67241794  0.40758411  0.14380046    -0.67100
O823        O  0.71222437  0.34562596  0.18983942    -1.13700
C824        C  0.62706803  0.23750472  0.13072590     1.04500
O825        O  0.60104633  0.35920288  0.12926231    -0.80300
O826        O  0.57731661  0.29947578  0.16512012    -0.67900
Ni827      Ni  0.78081760  0.36796916  0.19957585     1.34900
C828        C  0.58592861  0.27959763  0.18317260     0.83200
O829        O  0.71624890  0.42234414  0.19100120    -0.80800
O830        O  0.78848917  0.42240161  0.20089224    -0.91100
C831        C  0.63085687  0.39595060  0.13223456     0.82800
O832        O  0.80200165  0.37273054  0.16358061    -0.69300
O833        O  0.59887385  0.25472567  0.12759404    -0.88600
C834        C  0.79442886  0.39500108  0.14701702     0.83700
C835        C  0.76017779  0.43987227  0.19995125     1.05200
H836        H  0.69280256  0.33685357  0.12768736     0.37000
O837        O  0.67185851  0.33110869  0.14301144    -1.11200
O838        O  0.62634431  0.27594572  0.18456051    -0.67900
Ni839      Ni  0.68959034  0.29918523  0.16664681     1.26300
O840        O  0.75579989  0.40127984  0.14776021    -0.68100
O841        O  0.66845431  0.25435469  0.14260474    -0.80400
C842        C  0.75231557  0.28054590  0.20061997     0.83000
O843        O  0.70951352  0.26886928  0.19047325    -0.67600
Ni844      Ni  0.60466675  0.30858073  0.13030675     1.27400
Ni845      Ni  0.69363349  0.37735111  0.16665540     1.26100
H846        H  0.69276298  0.34021854  0.20578313     0.37600
C847        C  0.55206103  0.07006278  0.09568516     0.85000
C848        C  0.54918028  0.06533218  0.06530980    -0.55200
C849        C  0.52890223  0.02642330  0.05596383     0.07900
C850        C  0.00860513  0.49455234  0.08002684     0.18900
C851        C  0.00188941  0.04752052  0.10512425    -0.56000
C852        C  0.97109364  0.50338599  0.09653051     0.08000
C853        C  0.58026991  0.04594831  0.10423349    -0.55500
C854        C  0.55430358  0.50709334  0.09760749     0.08600
H855        H  0.56159753  0.09088320  0.05234715     0.13100
H856        H  0.99357935  0.46304495  0.07240964    -0.01100
H857        H  0.98409044  0.06021612  0.11883751     0.13400
H858        H  0.61426929  0.05817679  0.11551331     0.13200
C859        C  0.84022685  0.10791652  0.23719282     0.85000
C860        C  0.81155906  0.13143886  0.22799955    -0.55200
C861        C  0.82961208  0.17028405  0.23750729     0.07900
C862        C  0.87672810  0.18230469  0.25498998     0.18900
C863        C  0.89321940  0.13373043  0.22805228    -0.56000
C864        C  0.91255296  0.17289296  0.23713424     0.08000
C865        C  0.84261404  0.11226370  0.26754052    -0.55500
C866        C  0.86148346  0.15094662  0.27718535     0.08600
H867        H  0.78164149  0.11915370  0.21360987     0.13100
H868        H  0.89289603  0.21353569  0.26300234    -0.01100
H869        H  0.91272411  0.12254656  0.21439278     0.13400
H870        H  0.83065399  0.08647527  0.28027396     0.13200
C871        C  0.83829053  0.45480466  0.11892291    -0.14800
C872        C  0.83454716  0.41809244  0.12854060     0.07300
C873        C  0.87373187  0.40746940  0.12411096    -0.14800
C874        C  0.91696904  0.43415136  0.11199861    -0.14800
C875        C  0.92217072  0.47221520  0.10446443     0.07300
C876        C  0.88174886  0.48167661  0.10718729    -0.14800
H877        H  0.80897073  0.46404841  0.12212657     0.11300
H878        H  0.87199734  0.37941266  0.13128541     0.11300
H879        H  0.94751024  0.42605766  0.11023886     0.11300
H880        H  0.89609511  0.01820916  0.10428678     0.11300
C881        C  0.63450390  0.17284096  0.12864906    -0.14800
C882        C  0.60964938  0.19561051  0.12108231     0.07300
C883        C  0.56647766  0.17736238  0.10545925    -0.14800
C884        C  0.54856677  0.13702224  0.09757298    -0.14800
C885        C  0.57319440  0.11385560  0.10513260     0.07300
C886        C  0.61652918  0.13251560  0.12092861    -0.14800
H887        H  0.66754332  0.18598368  0.14099495     0.11300
H888        H  0.54630844  0.19417156  0.09940762     0.11300
H889        H  0.51518154  0.12371009  0.08551907     0.11300
H890        H  0.63742261  0.11706002  0.12783714     0.11300
C891        C  0.58680526  0.41803212  0.09878611    -0.14800
C892        C  0.61505411  0.42591663  0.12233770     0.07300
C893        C  0.62476027  0.46108925  0.13731914    -0.14800
C894        C  0.60500652  0.48729449  0.12939355    -0.14800
C895        C  0.57635259  0.47954591  0.10579629     0.07300
C896        C  0.56826963  0.44482550  0.09039403    -0.14800
H897        H  0.57910630  0.39106691  0.08683355     0.11300
H898        H  0.64583082  0.46742014  0.15578078     0.11300
H899        H  0.61211892  0.01049533  0.14151960     0.11300
H900        H  0.54778186  0.43810113  0.07179410     0.11300
C901        C  0.83388850  0.23984421  0.23374467    -0.14800
C902        C  0.80724881  0.19811351  0.22999206     0.07300
C903        C  0.75964095  0.18349969  0.21820878    -0.14800
C904        C  0.74093597  0.20989925  0.20902155    -0.14800
C905        C  0.76897327  0.25152045  0.21179242     0.07300
C906        C  0.81508899  0.26602103  0.22483027    -0.14800
H907        H  0.86998804  0.25311094  0.24291849     0.11300
H908        H  0.73641306  0.15169762  0.21583699     0.11300
H909        H  0.70497480  0.19774049  0.19940180     0.11300
H910        H  0.83752744  0.29797494  0.22776564     0.11300
C911        C  0.74878105  0.00144742  0.21341706    -0.14800
C912        C  0.77888590  0.98107629  0.21323182     0.07300
C913        C  0.82832846  0.00196001  0.22172739    -0.14800
C914        C  0.84767667  0.04259833  0.22923275    -0.14800
C915        C  0.81847148  0.06380133  0.22808808     0.07300
C916        C  0.76806576  0.04208556  0.22117162    -0.14800
H917        H  0.71269661  0.48852353  0.20415572     0.11300
H918        H  0.85257070  0.98710341  0.22216130     0.11300
H919        H  0.88577406  0.05755554  0.23582818     0.11300
H920        H  0.74278614  0.05584905  0.22209921     0.11300
C921        C  0.50491855  0.26607590  0.20469454    -0.14800
C922        C  0.54551363  0.25682119  0.20172154     0.07300
C923        C  0.54359377  0.22187234  0.21345132    -0.14800
C924        C  0.50085619  0.19543854  0.22613607    -0.14800
C925        C  0.96050547  0.20379216  0.22736789     0.07300
C926        C  0.96363457  0.24002482  0.21723889    -0.14800
H927        H  0.50502988  0.29261376  0.19581667     0.11300
H928        H  0.57394865  0.21360027  0.21135859     0.11300
H929        H  0.00067485  0.16786151  0.23311854     0.11300
H930        H  0.93220074  0.24698583  0.21796991     0.11300
C931        C  0.90798275  0.20530039  0.34396796    -0.14800
C932        C  0.87352554  0.17940135  0.36181458     0.07300
C933        C  0.83530410  0.14392361  0.35157019    -0.14800
C934        C  0.83134734  0.13480630  0.32420047    -0.14800
C935        C  0.86556149  0.16091882  0.30633781     0.07300
C936        C  0.90391989  0.19624894  0.31659498    -0.14800
H937        H  0.93866505  0.23246470  0.35111898     0.11300
H938        H  0.80757216  0.12361461  0.36453316     0.11300
H939        H  0.80074020  0.10760227  0.31701745     0.11300
H940        H  0.93151219  0.21659002  0.30357953     0.11300
C941        C  0.69056261  0.13015186  0.45477534    -0.14800
C942        C  0.67828251  0.08904856  0.45654877     0.07300
C943        C  0.71081806  0.07419199  0.44620094    -0.14800
C944        C  0.75609132  0.10015215  0.43591056    -0.14800
C945        C  0.77060029  0.14182312  0.43623586     0.07300
C946        C  0.73614031  0.15623147  0.44468502    -0.14800
H947        H  0.66563635  0.14235582  0.46189972     0.11300
H948        H  0.70169516  0.04239524  0.44648429     0.11300
H949        H  0.77986553  0.08717933  0.42856204     0.11300
H950        H  0.74436172  0.18777521  0.44392622     0.11300
C951        C  0.91285284  0.33923277  0.45336251    -0.14800
C952        C  0.96408193  0.36120975  0.45284108     0.07300
C953        C  0.99311879  0.34154106  0.44479237    -0.14800
C954        C  0.97132321  0.30050415  0.43805210    -0.14800
C955        C  0.92000709  0.27792212  0.43944565     0.07300
C956        C  0.89102926  0.29836828  0.44635039    -0.14800
H957        H  0.88948413  0.35374019  0.45897489     0.11300
H958        H  0.53312041  0.35603317  0.44799889     0.11300
H959        H  0.99468181  0.28633291  0.43174704     0.11300
H960        H  0.85132694  0.28361181  0.44578957     0.11300
C961        C  0.98535149  0.12124239  0.45492294    -0.14800
C962        C  0.95102217  0.08635536  0.46687839     0.07300
C963        C  0.90075280  0.07759019  0.46504744    -0.14800
C964        C  0.88534959  0.10389859  0.45261938    -0.14800
C965        C  0.91971108  0.13974241  0.44194360     0.07300
C966        C  0.96986626  0.14791088  0.44282099    -0.14800
H967        H  0.52106033  0.12278340  0.45236177     0.11300
H968        H  0.87346289  0.05127990  0.47434596     0.11300
H969        H  0.84681648  0.09742017  0.45297496     0.11300
H970        H  0.99713410  0.17545336  0.43479550     0.11300
C971        C  0.78174068  0.41140475  0.56649369    -0.14800
C972        C  0.76776944  0.36986103  0.56701846     0.07300
C973        C  0.80227130  0.35549005  0.55853904    -0.14800
C974        C  0.84661792  0.38107182  0.54707608    -0.14800
C975        C  0.85808208  0.42182636  0.54423644     0.07300
C976        C  0.82599171  0.43698063  0.55489768    -0.14800
H977        H  0.75825580  0.42441738  0.57418349     0.11300
H978        H  0.79494301  0.32423450  0.56018557     0.11300
H979        H  0.87131941  0.36870346  0.53985444     0.11300
H980        H  0.83472106  0.46865199  0.55394011     0.11300
C981        C  0.54774249  0.16806262  0.56012052    -0.14800
C982        C  0.57556536  0.14985546  0.54802885     0.07300
C983        C  0.62553264  0.17343812  0.54339147    -0.14800
C984        C  0.64734396  0.21421343  0.55064363    -0.14800
C985        C  0.61948489  0.23304647  0.56228840     0.07300
C986        C  0.56938163  0.20904086  0.56706767    -0.14800
H987        H  0.50890904  0.15080266  0.56385213     0.11300
H988        H  0.64804571  0.16033004  0.53422074     0.11300
H989        H  0.68624412  0.22977748  0.54729431     0.11300
H990        H  0.54693402  0.22210846  0.57635815     0.11300
C991        C  0.55061636  0.38644366  0.54398853    -0.14800
C992        C  0.58469973  0.42378668  0.53479079     0.07300
C993        C  0.63515608  0.43494357  0.53921074    -0.14800
C994        C  0.65114397  0.40881689  0.55156482    -0.14800
C995        C  0.61730305  0.37061617  0.55941721     0.07300
C996        C  0.56675314  0.35999831  0.55590028    -0.14800
H997        H  0.51152928  0.37656849  0.54044069     0.11300
H998        H  0.66240255  0.46321966  0.53206993     0.11300
H999        H  0.69013438  0.41762896  0.55339138     0.11300
H1000       H  0.53972285  0.33079264  0.56177722     0.11300
C1001       C  0.97166452  0.47299828  0.99162077    -0.14800
C1002       C  0.50872040  0.99824482  0.97165131     0.07300
C1003       C  0.55016264  0.03196062  0.98123194    -0.14800
C1004       C  0.55721613  0.04073181  0.00861212    -0.14800
C1005       C  0.52278979  0.01607383  0.02697157     0.07300
C1006       C  0.97809737  0.48168083  0.01901689    -0.14800
H1007       H  0.93942749  0.44681267  0.98467153     0.11300
H1008       H  0.57764106  0.05108924  0.96764268     0.11300
H1009       H  0.58993604  0.06662974  0.01540979     0.11300
H1010       H  0.95055711  0.46219139  0.03243168     0.11300
C1011       C  0.62340236  0.31509979  0.68423260    -0.14800
C1012       C  0.66180087  0.34972883  0.69520679     0.07300
C1013       C  0.69930789  0.37471647  0.67844980    -0.14800
C1014       C  0.69822005  0.36542796  0.65122507    -0.14800
C1015       C  0.65961130  0.33097063  0.64014310     0.07300
C1016       C  0.62216687  0.30589771  0.65697286    -0.14800
H1017       H  0.59369223  0.29563536  0.69658518     0.11300
H1018       H  0.72993549  0.40125315  0.68645918     0.11300
H1019       H  0.72813676  0.38485403  0.63898601     0.11300
H1020       H  0.59139349  0.27942585  0.64903053     0.11300
C1021       C  0.88905127  0.34068135  0.87610622    -0.14800
C1022       C  0.91809581  0.31954649  0.87767764     0.07300
C1023       C  0.96601920  0.33919904  0.88857127    -0.14800
C1024       C  0.47845883  0.37647017  0.89834744    -0.14800
C1025       C  0.95661521  0.40128257  0.89462061     0.07300
C1026       C  0.90771365  0.38077822  0.88479287    -0.14800
H1027       H  0.85169959  0.32620402  0.86826417     0.11300
H1028       H  0.98926225  0.32359891  0.89040600     0.11300
H1029       H  0.51448499  0.39047955  0.90787181     0.11300
H1030       H  0.88267578  0.39471258  0.88425748     0.11300
C1031       C  0.64869380  0.10562037  0.87440106    -0.14800
C1032       C  0.68666420  0.09414291  0.86849100     0.07300
C1033       C  0.68124112  0.05602518  0.87623710    -0.14800
C1034       C  0.63763290  0.02912638  0.88797089    -0.14800
C1035       C  0.59866568  0.03988635  0.89269703     0.07300
C1036       C  0.60542994  0.07893363  0.88657677    -0.14800
H1037       H  0.65158936  0.13466481  0.86859639     0.11300
H1038       H  0.70947622  0.04599275  0.87173100     0.11300
H1039       H  0.63386492  0.99942985  0.89269237     0.11300
H1040       H  0.57618293  0.08812814  0.88967653     0.11300
C1041       C  0.87804986  0.04799846  0.87615395    -0.14800
C1042       C  0.90800784  0.08939401  0.87766712     0.07300
C1043       C  0.95452251  0.10336395  0.89015860    -0.14800
C1044       C  0.97189171  0.07664782  0.89963464    -0.14800
C1045       C  0.94353964  0.03501662  0.89673046     0.07300
C1046       C  0.89541557  0.02110874  0.88580459    -0.14800
H1047       H  0.84153155  0.03635753  0.86723231     0.11300
H1048       H  0.97828985  0.13520741  0.89226296     0.11300
H1049       H  0.50772325  0.08982073  0.90909253     0.11000
H1050       H  0.87366736  0.48825116  0.88524418     0.11300
C1051       C  0.76264205  0.29865738  0.80529621    -0.14800
C1052       C  0.75672253  0.26532208  0.78916941     0.07300
C1053       C  0.73228423  0.25913507  0.76448215    -0.14800
C1054       C  0.71291154  0.28542992  0.75627024    -0.14800
C1055       C  0.71626522  0.31769599  0.77297775     0.07300
C1056       C  0.74208461  0.32435582  0.79744578    -0.14800
H1057       H  0.78096303  0.30362781  0.82455962     0.11300
H1058       H  0.72784082  0.23370107  0.75164967     0.11300
H1059       H  0.69505648  0.28014183  0.73690699     0.11300
H1060       H  0.74502011  0.34848727  0.81107643     0.11300
C1061       C  0.97813839  0.29154283  0.78411087    -0.14800
C1062       C  0.97559721  0.25610618  0.79532679     0.07300
C1063       C  0.51367924  0.24324286  0.79336238    -0.14800
C1064       C  0.55659538  0.26969004  0.78078832    -0.14800
C1065       C  0.55965542  0.30590605  0.77071890     0.07300
C1066       C  0.51765787  0.31350403  0.77145681    -0.14800
H1067       H  0.94791267  0.29997159  0.78619317     0.11300
H1068       H  0.01522309  0.21944786  0.80064087     0.11300
H1069       H  0.58845895  0.26313108  0.78058111     0.11300
H1070       H  0.51888893  0.34101819  0.76357475     0.11300
C1071       C  0.77023430  0.51271657  0.77948589    -0.14800
C1072       C  0.74578232  0.03369937  0.78756361     0.07300
C1073       C  0.68844236  0.50678231  0.78858363    -0.14800
C1074       C  0.66815984  0.46640012  0.78053261    -0.14800
C1075       C  0.69862609  0.44818490  0.77220415     0.07300
C1076       C  0.74981467  0.47239600  0.77085781    -0.14800
H1077       H  0.81458599  0.02878368  0.79254485     0.11300
H1078       H  0.66382172  0.51961627  0.79517705     0.11300
H1079       H  0.62855786  0.45020575  0.78043603     0.11300
H1080       H  0.77422838  0.45990259  0.76341133     0.11300
O1081       O  0.91786287  0.65289434  0.86965474    -0.82400
O1082       O  0.80685269  0.74260017  0.81266898    -0.67100
O1083       O  0.84638802  0.67955584  0.85747599    -1.13700
C1084       C  0.75986974  0.57246153  0.79808503     1.04500
O1085       O  0.73467634  0.69464319  0.79889875    -0.80300
O1086       O  0.71480815  0.63632656  0.83526629    -0.67900
Ni1087     Ni  0.91438280  0.70311521  0.86854929     1.34900
C1088       C  0.72261676  0.61411479  0.85185551     0.83200
O1089       O  0.84878500  0.75615523  0.85990786    -0.80800
O1090       O  0.92106421  0.75733324  0.87058240    -0.91100
C1091       C  0.76492297  0.73127374  0.80173720     0.82800
O1092       O  0.93765947  0.70958669  0.83305770    -0.69300
O1093       O  0.73137430  0.58977078  0.79706525    -0.88600
C1094       C  0.92933372  0.73089253  0.81604903     0.83700
C1095       C  0.89205267  0.77411452  0.86957064     1.05200
H1096       H  0.82608478  0.67273782  0.79494648     0.37000
O1097       O  0.80587490  0.66631030  0.81073375    -1.11200
O1098       O  0.76203027  0.60881539  0.85163388    -0.67900
Ni1099     Ni  0.82484537  0.63386564  0.83319402     1.26300
O1100       O  0.89011995  0.73640369  0.81636092    -0.68100
O1101       O  0.80315853  0.58957266  0.80800164    -0.80400
C1102       C  0.88895237  0.61594162  0.86713633     0.83000
O1103       O  0.84694295  0.60341867  0.85575789    -0.67600
Ni1104     Ni  0.73793760  0.64387250  0.79964590     1.27400
Ni1105     Ni  0.82762570  0.71184709  0.83498654     1.26100
H1106       H  0.82610746  0.67310764  0.87319539     0.37600
C1107       C  0.68380402  0.90700694  0.76481031     0.85000
C1108       C  0.68314795  0.90110179  0.73459715    -0.55200
C1109       C  0.66407349  0.86189561  0.72600003     0.07900
C1110       C  0.64657286  0.83189592  0.74884514     0.18900
C1111       C  0.63007818  0.88241320  0.77332333    -0.56000
C1112       C  0.61040392  0.84296337  0.76496296     0.08000
C1113       C  0.71116107  0.88342177  0.77571090    -0.55500
C1114       C  0.69202084  0.84408563  0.76735343     0.08600
H1115       H  0.69655073  0.92615726  0.72121816     0.13100
H1116       H  0.63023248  0.80001338  0.74204630    -0.01100
H1117       H  0.61033357  0.89457187  0.78607353     0.13400
H1118       H  0.74259414  0.89649958  0.78913638     0.13200
C1119       C  0.97318158  0.94323913  0.90295641     0.85000
C1120       C  0.94515477  0.96756751  0.89443476    -0.55200
C1121       C  0.96818858  0.50763993  0.90483748     0.07900
C1122       C  0.51075143  0.51703253  0.92166893     0.18900
C1123       C  0.52955393  0.97036169  0.89269768    -0.56000
C1124       C  0.54584135  0.50688612  0.90381569     0.08000
C1125       C  0.97711935  0.94781553  0.93334848    -0.55500
C1126       C  0.49539664  0.48575338  0.94377234     0.08600
H1127       H  0.91480605  0.95614111  0.88033160     0.13100
H1128       H  0.52753435  0.54827718  0.92967132    -0.01100
H1129       H  0.54807412  0.95880517  0.87865727     0.13400
H1130       H  0.96524384  0.92223765  0.94627501     0.13200
O1131       O  0.63445806  0.53031122  0.46754382    -0.82400
O1132       O  0.93163868  0.93484750  0.53181312    -0.67100
O1133       O  0.52593282  0.99540237  0.48171792    -1.13700
C1134       C  0.55653341  0.60514924  0.53449946     1.04500
O1135       O  0.90162146  0.98022022  0.53253742    -0.80300
O1136       O  0.95251367  0.55722963  0.50350834    -0.67900
Ni1137     Ni  0.57133068  0.97757868  0.46683159     1.34900
C1138       C  0.97373485  0.56827759  0.48136951     0.83200
O1139       O  0.95845209  0.91412645  0.48481726    -0.80800
O1140       O  0.51850749  0.92722014  0.45659845    -0.91100
C1141       C  0.89769018  0.94540435  0.53767996     0.82800
O1142       O  0.58415300  0.95373102  0.49750653    -0.69300
O1143       O  0.51700718  0.58118141  0.54554815    -0.88600
C1144       C  0.56317779  0.94259999  0.51971216     0.83700
C1145       C  0.97799754  0.90402239  0.46506516     1.05200
H1146       H  0.52848293  0.51145859  0.53395034     0.37000
O1147       O  0.50932475  0.51392138  0.51923606    -1.11200
O1148       O  0.50914823  0.56090540  0.47417590    -0.67900
Ni1149     Ni  0.55482043  0.54601809  0.49349262     1.26300
O1150       O  0.52581134  0.94825407  0.52675561    -0.68100
O1151       O  0.57517494  0.59554358  0.51414609    -0.80400
C1152       C  0.63651858  0.56408012  0.46099268     0.83000
O1153       O  0.60245657  0.57439936  0.46721779    -0.67600
Ni1154     Ni  0.96431210  0.53219173  0.53388810     1.27400
Ni1155     Ni  0.97989745  0.96335808  0.50597749     1.26100
H1156       H  0.51559335  0.49729796  0.45787069     0.37600
C1157       C  0.90067277  0.73820655  0.42410467     0.85000
C1158       C  0.84586720  0.71406661  0.43029900    -0.55200
C1159       C  0.82629946  0.67442287  0.42233198     0.07900
C1160       C  0.86442601  0.66271411  0.40847985     0.18900
C1161       C  0.92666409  0.71452054  0.43662043    -0.56000
C1162       C  0.90764701  0.67493753  0.42856706     0.08000
C1163       C  0.90293106  0.73165259  0.39385179    -0.55500
C1164       C  0.88441311  0.69232302  0.38559977     0.08600
H1165       H  0.82507989  0.72754055  0.44088276     0.13100
H1166       H  0.85051035  0.63096923  0.40155891    -0.01100
H1167       H  0.95651972  0.72766788  0.45116530     0.13400
H1168       H  0.91472411  0.75542362  0.37962042     0.13200
C1169       C  0.63323008  0.77069801  0.57521894     0.85000
C1170       C  0.63377199  0.77711562  0.60561378    -0.55200
C1171       C  0.65286051  0.81635851  0.61402968     0.07900
C1172       C  0.67114490  0.84608875  0.59111005     0.18900
C1173       C  0.60641431  0.79471849  0.56399794    -0.56000
C1174       C  0.62644461  0.83426412  0.57223312     0.08000
C1175       C  0.68737318  0.79462268  0.56766726    -0.55500
C1176       C  0.70756873  0.83416824  0.57571587     0.08600
H1177       H  0.62296174  0.75331855  0.61976147     0.13100
H1178       H  0.68618867  0.87794844  0.59797663    -0.01100
H1179       H  0.57572847  0.78198620  0.54992199     0.13400
H1180       H  0.70726589  0.78133344  0.55604375     0.13200
O1181       O  0.78941459  0.81855839  0.19835471    -0.82400
O1182       O  0.67793898  0.90889828  0.14280926    -0.67100
O1183       O  0.71724336  0.84598261  0.18815848    -1.13700
C1184       C  0.63208378  0.73790218  0.13001497     1.04500
O1185       O  0.60891505  0.86017000  0.12589094    -0.80300
O1186       O  0.58725486  0.80440763  0.16443816    -0.67900
Ni1187     Ni  0.78409804  0.86827584  0.20087019     1.34900
C1188       C  0.59416998  0.78220622  0.18141335     0.83200
O1189       O  0.71924337  0.92261708  0.19063115    -0.80800
O1190       O  0.78813926  0.92133494  0.20609631    -0.91100
C1191       C  0.63749614  0.89691221  0.12997396     0.82800
O1192       O  0.81235221  0.88095659  0.16664572    -0.69300
O1193       O  0.60378769  0.75526930  0.12854812    -0.88600
C1194       C  0.80369028  0.90154381  0.14925505     0.83700
C1195       C  0.76037803  0.93900624  0.20303437     1.05200
H1196       H  0.70009399  0.83946020  0.12557405     0.37000
O1197       O  0.67907752  0.83290842  0.14089263    -1.11200
O1198       O  0.63311344  0.77633647  0.18167723    -0.67900
Ni1199     Ni  0.69650800  0.80037650  0.16409458     1.26300
O1200       O  0.76279000  0.90439225  0.14791354    -0.68100
O1201       O  0.67575978  0.75565534  0.13922563    -0.80400
C1202       C  0.75902692  0.78184422  0.19760049     0.83000
O1203       O  0.71607673  0.76988520  0.18770178    -0.67600
Ni1204     Ni  0.61139148  0.80961167  0.12898095     1.27400
Ni1205     Ni  0.69921180  0.87843692  0.16541679     1.26100
H1206       H  0.69619606  0.83948091  0.20349674     0.37600
C1207       C  0.54292634  0.56891116  0.09673230     0.85000
C1208       C  0.54208115  0.56431830  0.06636198    -0.55200
C1209       C  0.52375255  0.52547244  0.05697003     0.07900
C1210       C  0.01386460  0.99651958  0.07844096     0.18900
C1211       C  0.98897447  0.54231635  0.10581248    -0.56000
C1212       C  0.98047587  0.00812504  0.09662046     0.08000
C1213       C  0.57198347  0.54618963  0.10658434    -0.55500
C1214       C  0.55969208  0.00674661  0.09575872     0.08600
H1215       H  0.55362350  0.58987694  0.05344057     0.13100
H1216       H  0.99632081  0.96464527  0.07144955    -0.01100
H1217       H  0.96759959  0.55195391  0.11910979     0.13400
H1218       H  0.60423883  0.56050740  0.11942757     0.13200
C1219       C  0.84505561  0.60882741  0.23251563     0.85000
C1220       C  0.81717538  0.63298213  0.22341424    -0.55200
C1221       C  0.83546529  0.67142603  0.23350188     0.07900
C1222       C  0.88199870  0.68269281  0.25112695     0.18900
C1223       C  0.89835994  0.63438150  0.22383984    -0.56000
C1224       C  0.91770668  0.67318042  0.23345845     0.08000
C1225       C  0.84666659  0.61235964  0.26294451    -0.55500
C1226       C  0.86611341  0.65090565  0.27285652     0.08600
H1227       H  0.78752419  0.62154967  0.20877914     0.13100
H1228       H  0.89817414  0.71383463  0.25941138    -0.01100
H1229       H  0.91805015  0.62351337  0.21008362     0.13400
H1230       H  0.83412058  0.58636183  0.27551836     0.13200
C1231       C  0.84933056  0.96271696  0.12235807    -0.14800
C1232       C  0.84477513  0.92556323  0.13155668     0.07300
C1233       C  0.88376159  0.91465041  0.12721929    -0.14800
C1234       C  0.92682566  0.94074484  0.11473423    -0.14800
C1235       C  0.93231130  0.97867076  0.10674555     0.07300
C1236       C  0.89285088  0.98916304  0.11031403    -0.14800
H1237       H  0.82037887  0.97230782  0.12581981     0.11300
H1238       H  0.88164368  0.88644257  0.13433780     0.11300
H1239       H  0.95684058  0.93206603  0.11260121     0.11300
H1240       H  0.88446993  0.51059067  0.10119883     0.11300
C1241       C  0.63915102  0.67708182  0.11063697    -0.14800
C1242       C  0.61081439  0.69498819  0.12211751     0.07300
C1243       C  0.56012778  0.67179326  0.12540933    -0.14800
C1244       C  0.53793267  0.63142869  0.11749265    -0.14800
C1245       C  0.56590404  0.61292225  0.10601146     0.07300
C1246       C  0.61672022  0.63661261  0.10225336    -0.14800
H1247       H  0.67818512  0.69454520  0.10757017     0.11300
H1248       H  0.53734861  0.68498160  0.13417958     0.11300
H1249       H  0.49868628  0.61573837  0.11991742     0.11300
H1250       H  0.63915578  0.62363379  0.09285530     0.11300
C1251       C  0.59323676  0.91846727  0.09630664    -0.14800
C1252       C  0.62105535  0.92633892  0.12007466     0.07300
C1253       C  0.62850580  0.96035387  0.13573495    -0.14800
C1254       C  0.60765856  0.98576111  0.12807155    -0.14800
C1255       C  0.58044935  0.97859019  0.10399701     0.07300
C1256       C  0.57357761  0.94465148  0.08815753    -0.14800
H1257       H  0.58673698  0.89201679  0.08404835     0.11300
H1258       H  0.64858265  0.96630184  0.15451432     0.11300
H1259       H  0.61129800  0.51295835  0.14232524     0.11300
H1260       H  0.55337407  0.93834434  0.06945142     0.11300
C1261       C  0.84237495  0.74121129  0.22824475    -0.14800
C1262       C  0.81377090  0.69956315  0.22641116     0.07300
C1263       C  0.76476561  0.68509748  0.21679919    -0.14800
C1264       C  0.74625983  0.71155779  0.20765135    -0.14800
C1265       C  0.77626353  0.75299676  0.20813960     0.07300
C1266       C  0.82414169  0.76746284  0.21898475    -0.14800
H1267       H  0.87934858  0.75419184  0.23628716     0.11300
H1268       H  0.74044538  0.65334751  0.21623435     0.11300
H1269       H  0.70881245  0.69958035  0.19997827     0.11300
H1270       H  0.84811869  0.79933848  0.22016267     0.11300
C1271       C  0.75161295  0.50358091  0.20912520    -0.14800
C1272       C  0.78093021  0.48258961  0.20847283     0.07300
C1273       C  0.83113008  0.50300178  0.21559639    -0.14800
C1274       C  0.85165191  0.54365187  0.22292908    -0.14800
C1275       C  0.82283409  0.56522009  0.22281303     0.07300
C1276       C  0.77207744  0.54420210  0.21665601    -0.14800
H1277       H  0.71028049  0.98598528  0.20760939     0.11300
H1278       H  0.85478772  0.48759841  0.21553926     0.11300
H1279       H  0.89011378  0.55813779  0.22889343     0.11300
H1280       H  0.74736964  0.55846040  0.21824381     0.11300
C1281       C  0.51298271  0.76822008  0.20240085    -0.14800
C1282       C  0.55330516  0.75875644  0.19934780     0.07300
C1283       C  0.55063516  0.72298218  0.21015898    -0.14800
C1284       C  0.50750321  0.69619014  0.22225605    -0.14800
C1285       C  0.96538572  0.70410833  0.22421315     0.07300
C1286       C  0.96731868  0.73919979  0.21298039    -0.14800
H1287       H  0.51362385  0.79529093  0.19408703     0.11300
H1288       H  0.58077020  0.71448328  0.20785994     0.11300
H1289       H  0.00698400  0.67002552  0.23239269     0.11300
H1290       H  0.93482218  0.74453347  0.21190852     0.11300
C1291       C  0.91700064  0.70418937  0.33907741    -0.14800
C1292       C  0.88096908  0.68026520  0.35693924     0.07300
C1293       C  0.84048682  0.64606181  0.34700242    -0.14800
C1294       C  0.83570152  0.63641581  0.31972076    -0.14800
C1295       C  0.87131138  0.66080090  0.30184590     0.07300
C1296       C  0.91211298  0.69464176  0.31182755    -0.14800
H1297       H  0.94915312  0.73033847  0.34616751     0.11300
H1298       H  0.81168084  0.62744727  0.36014128     0.11300
H1299       H  0.80348080  0.61039182  0.31254968     0.11300
H1300       H  0.94068071  0.71347525  0.29864491     0.11300
C1301       C  0.69288235  0.63282351  0.44517436    -0.14800
C1302       C  0.68166092  0.59203093  0.44764421     0.07300
C1303       C  0.71550847  0.57781322  0.43826569    -0.14800
C1304       C  0.76118225  0.60415947  0.42874058    -0.14800
C1305       C  0.77448720  0.64561650  0.42827818     0.07300
C1306       C  0.73867212  0.65929908  0.43542415    -0.14800
H1307       H  0.66706461  0.64451912  0.45161144     0.11300
H1308       H  0.70746193  0.54625961  0.43914068     0.11300
H1309       H  0.78642065  0.59167732  0.42302832     0.11300
H1310       H  0.74602585  0.69059072  0.43413686     0.11300
C1311       C  0.92563324  0.83024738  0.46990035    -0.14800
C1312       C  0.95435197  0.86241962  0.45390419     0.07300
C1313       C  0.96632004  0.85402187  0.42819538    -0.14800
C1314       C  0.94996653  0.81450597  0.41857957    -0.14800
C1315       C  0.92064554  0.78191817  0.43433726     0.07300
C1316       C  0.90973591  0.79052584  0.46039845    -0.14800
H1317       H  0.91712134  0.83572267  0.49012501     0.11300
H1318       H  0.48545880  0.87928679  0.41673035     0.11300
H1319       H  0.96220865  0.81022890  0.39909989     0.11300
H1320       H  0.88863587  0.76636918  0.47346986     0.11300
C1321       C  0.98955456  0.62535324  0.45063916    -0.14800
C1322       C  0.95594320  0.59188916  0.46421673     0.07300
C1323       C  0.90624325  0.58526349  0.46482145    -0.14800
C1324       C  0.89061409  0.61160915  0.45249820    -0.14800
C1325       C  0.92440545  0.64575200  0.43980928     0.07300
C1326       C  0.97402917  0.65231610  0.43884288    -0.14800
H1327       H  0.52535628  0.62757840  0.44708317     0.11300
H1328       H  0.87963071  0.56021765  0.47550486     0.11300
H1329       H  0.85242620  0.60629040  0.45397227     0.11300
H1330       H  0.00081237  0.67853973  0.42923141     0.11300
C1331       C  0.76968927  0.90379058  0.56588447    -0.14800
C1332       C  0.75826003  0.86292833  0.56833600     0.07300
C1333       C  0.79479849  0.84967215  0.56220657    -0.14800
C1334       C  0.84064738  0.87634653  0.55265845    -0.14800
C1335       C  0.85088055  0.91679327  0.54915503     0.07300
C1336       C  0.81515763  0.93025334  0.55632577    -0.14800
H1337       H  0.74327452  0.91559583  0.57047395     0.11300
H1338       H  0.78809667  0.81866656  0.56460900     0.11300
H1339       H  0.86766685  0.86520163  0.54764067     0.11300
H1340       H  0.82192799  0.96136662  0.55418384     0.11300
C1341       C  0.57041446  0.65490859  0.57165608    -0.14800
C1342       C  0.57962885  0.64680473  0.54534355     0.07300
C1343       C  0.60464959  0.67907354  0.52864522    -0.14800
C1344       C  0.62011049  0.71869425  0.53818777    -0.14800
C1345       C  0.61237677  0.72706985  0.56488352     0.07300
C1346       C  0.58622046  0.69432092  0.58126291    -0.14800
H1347       H  0.54991462  0.63060061  0.58477387     0.11300
H1348       H  0.61068515  0.67367664  0.50795916     0.11300
H1349       H  0.63868123  0.74297198  0.52472236     0.11300
H1350       H  0.57616087  0.69823452  0.60132977     0.11300
C1351       C  0.55019130  0.89078630  0.55454075    -0.14800
C1352       C  0.58168308  0.91944799  0.53692604     0.07300
C1353       C  0.62876197  0.92109312  0.53259142    -0.14800
C1354       C  0.64320111  0.89387327  0.54455806    -0.14800
C1355       C  0.61111276  0.86429072  0.56117477     0.07300
C1356       C  0.56468058  0.86323249  0.56640639    -0.14800
H1357       H  0.51344580  0.88827234  0.55803070     0.11300
H1358       H  0.65383989  0.94245348  0.51901538     0.11300
H1359       H  0.67866822  0.89471458  0.53975337     0.11300
H1360       H  0.53938202  0.84065591  0.57924629     0.11300
C1361       C  0.97100390  0.97348353  0.99036204    -0.14800
C1362       C  0.50240895  0.49618208  0.97278201     0.07300
C1363       C  0.54296036  0.53084122  0.98214827    -0.14800
C1364       C  0.55022948  0.54007494  0.00944683    -0.14800
C1365       C  0.51709117  0.51486482  0.02802082     0.07300
C1366       C  0.97891459  0.98274271  0.01765861    -0.14800
H1367       H  0.93758681  0.94801560  0.98383318     0.11300
H1368       H  0.56981239  0.55042075  0.96848338     0.11300
H1369       H  0.58225579  0.56672799  0.01601763     0.11300
H1370       H  0.95136387  0.96442842  0.03150966     0.11300
C1371       C  0.62381732  0.81403561  0.68766824    -0.14800
C1372       C  0.66177520  0.84997229  0.69739054     0.07300
C1373       C  0.69720234  0.87471897  0.67952470    -0.14800
C1374       C  0.69429991  0.86398256  0.65248220    -0.14800
C1375       C  0.65602898  0.82821325  0.64272468     0.07300
C1376       C  0.62086191  0.80334890  0.66065883    -0.14800
H1377       H  0.59547703  0.79461472  0.70071763     0.11300
H1378       H  0.72769129  0.90218878  0.68645089     0.11300
H1379       H  0.72260337  0.88335238  0.63938917     0.11300
H1380       H  0.59026759  0.77590287  0.65379472     0.11300
C1381       C  0.88232387  0.83792552  0.87671410    -0.14800
C1382       C  0.91103719  0.81654620  0.87891308     0.07300
C1383       C  0.95926730  0.83652408  0.88933155    -0.14800
C1384       C  0.48393334  0.87945513  0.89441718    -0.14800
C1385       C  0.95076347  0.89915668  0.89385414     0.07300
C1386       C  0.90167602  0.87857031  0.88432554    -0.14800
H1387       H  0.84481922  0.82326467  0.86911657     0.11300
H1388       H  0.98237983  0.82087751  0.89154818     0.11300
H1389       H  0.52223598  0.89429980  0.90066542     0.11300
H1390       H  0.87709891  0.89288591  0.88321344     0.11300
C1391       C  0.64217681  0.60072226  0.87349973    -0.14800
C1392       C  0.68205513  0.59069302  0.87011107     0.07300
C1393       C  0.67871476  0.55461169  0.88074278    -0.14800
C1394       C  0.63518797  0.52799681  0.89276348    -0.14800
C1395       C  0.59447746  0.53721654  0.89478548     0.07300
C1396       C  0.59906999  0.57437850  0.88577032    -0.14800
H1397       H  0.64331181  0.62811618  0.86545950     0.11300
H1398       H  0.70853291  0.54576439  0.87830940     0.11300
H1399       H  0.63272572  0.49960014  0.89970360     0.11300
H1400       H  0.56822417  0.58202170  0.88654916     0.11300
C1401       C  0.87840778  0.54595471  0.87659945    -0.14800
C1402       C  0.90688550  0.58756607  0.87799301     0.07300
C1403       C  0.95393169  0.60270216  0.89011940    -0.14800
C1404       C  0.97286426  0.57698996  0.89969887    -0.14800
C1405       C  0.94568660  0.53522368  0.89723562     0.07300
C1406       C  0.89734459  0.52009562  0.88636195    -0.14800
H1407       H  0.84168616  0.53337298  0.86788184     0.11300
H1408       H  0.97682616  0.63472690  0.89199481     0.11300
H1409       H  0.50653806  0.58878075  0.90905725     0.11000
H1410       H  0.87081189  0.98948388  0.88442605     0.11300
C1411       C  0.75874159  0.79608994  0.80780021    -0.14800
C1412       C  0.74952559  0.76147729  0.79228253     0.07300
C1413       C  0.72267934  0.75451932  0.76835545    -0.14800
C1414       C  0.70514967  0.78184058  0.75997779    -0.14800
C1415       C  0.71270264  0.81598813  0.77583577     0.07300
C1416       C  0.73983711  0.82280318  0.79988616    -0.14800
H1417       H  0.77883769  0.80160326  0.82654523     0.11300
H1418       H  0.71553899  0.72798435  0.75604376     0.11300
H1419       H  0.68600831  0.77607471  0.74098195     0.11300
H1420       H  0.74561802  0.84811877  0.81306567     0.11300
C1421       C  0.97119734  0.78833563  0.78565215    -0.14800
C1422       C  0.96911848  0.75329291  0.79723105     0.07300
C1423       C  0.51209533  0.74781527  0.79276194    -0.14800
C1424       C  0.55564176  0.77449644  0.78105706    -0.14800
C1425       C  0.56148658  0.81281765  0.77373906     0.07300
C1426       C  0.52159550  0.82289794  0.77681466    -0.14800
H1427       H  0.94090730  0.79669620  0.78770228     0.11300
H1428       H  0.00908098  0.71697005  0.80288741     0.11300
H1429       H  0.58578892  0.76593622  0.77926038     0.11300
H1430       H  0.52488119  0.85208304  0.77109162     0.11300
C1431       C  0.77594091  0.01338595  0.78702344    -0.14800
C1432       C  0.73966194  0.53017216  0.78856654     0.07300
C1433       C  0.69626269  0.01306726  0.77928191    -0.14800
C1434       C  0.67676039  0.97251671  0.77179394    -0.14800
C1435       C  0.70589542  0.95126756  0.77296385     0.07300
C1436       C  0.75646413  0.97283245  0.77934388    -0.14800
H1437       H  0.80973802  0.53031996  0.77875841     0.11300
H1438       H  0.67219193  0.02808230  0.77888592     0.11300
H1439       H  0.63862004  0.95771884  0.76527388     0.11300
H1440       H  0.78156670  0.95890292  0.77819956     0.11300
loop_ 
_geom_bond_atom_site_label_1 
_geom_bond_atom_site_label_2 
_geom_bond_distance 
_geom_bond_site_symmetry_2 
_ccdc_geom_bond_type 
O1           Ni7   1.899       .  S
O1           C22   1.266       .  A
O2          Ni25   1.901       .  S
O2           C11   1.266       .  A
O3           Ni7   1.920       .  S
O3          Ni25   1.907       .  S
O3          Ni19   1.918       .  S
O3           H26   0.971       .  S
C4           O21   1.269       .  A
C4           O13   1.269       .  A
C4          C352   1.469       .  S
O5          Ni24   1.917       .  S
O5           C11   1.269       .  A
O6          Ni24   1.908       .  S
O6            C8   1.271       .  A
Ni7          O10   1.922       .  S
Ni7          O12   1.904       .  S
C8           O18   1.279       .  A
C8          C312   1.488       .  S
O9          Ni25   1.905       .  S
O9           C15   1.268       .  A
O10          C15   1.268       .  A
C11         C332   1.472       .  S
O12          C14   1.268       .  A
O13         Ni24   1.919       .  S
C14          O20   1.280       .  A
C14         C342   1.489       .  S
C15         C302   1.478       .  S
H16          O17   0.969       .  S
O17         Ni25   1.917       .  S
O17         Ni19   1.916       .  S
O17         Ni24   1.921       .  S
O18         Ni19   1.955       .  S
Ni19         O23   1.913       .  S
Ni19         O21   1.911       .  S
O20         Ni25   1.958       .  S
C22          O23   1.269       .  A
C22         C322   1.476       .  S
C27          C28   1.528       .  S
C27          C33   1.540       .  S
C27          C31   1.544       .  S
C27         C355   1.526       .  S
C28          H35   1.086       .  S
C28          C29   1.365       .  D
C29          C30   1.542       .  S
C29         C292   1.484       .  S
C30          C34   1.546       .  S
C30          C32   1.537       .  S
C30          H36   1.105       .  S
C31          H37   1.085       .  S
C31          C32   1.366       .  D
C32         C345   1.488       .  S
C33          H38   1.082       .  S
C33          C34   1.371       .  D
C34         C335   1.497       .  S
C39          C40   1.537       .  S
C39          C45   1.531       .  S
C39         C763   1.541       .  S
C39         C305   1.527       .  S
C40          H47   1.077       .  S
C40         C401   1.366       .  D
C41         C762   1.552       .  S
C41         C400   1.365   1_545  D
C41         C325   1.495       .  S
C42          C46   1.542   1_445  S
C42          C44   1.544       .  S
C42         C761   1.549   1_455  S
C42          H48   1.105       .  S
C43         C759   1.540   1_455  S
C43          H49   1.086       .  S
C43         C404   1.369       .  D
C44         C403   1.369   1_545  D
C44         C315   1.492       .  S
C45          H50   1.086       .  S
C45        C1126   1.365       .  D
C46        C1125   1.363       .  D
C46         C282   1.486   1_655  S
O51        Ni417   1.917   1_545  S
O51          C72   1.269       .  A
O52         Ni75   1.915       .  S
O52          C61   1.270       .  A
O53         Ni57   1.906       .  S
O53        Ni795   1.904   1_455  S
O53        Ni429   1.919       .  S
O53         H436   0.966       .  S
C54          O71   1.278       .  A
C54          O63   1.276       .  A
C54         C262   1.483       .  S
O55        Ni434   1.919       .  S
O55          C61   1.269       .  A
O56         Ni74   1.901       .  S
O56          C58   1.267       .  A
Ni57         O60   1.924       .  S
Ni57         O62   1.905       .  S
Ni57        O411   1.917       .  S
C58         O788   1.274       .  A
C58         C242   1.485       .  S
O59         Ni75   1.914       .  S
O59          C65   1.277       .  A
O60         C785   1.277   1_455  A
C61         C255   1.481       .  S
O62          C64   1.268       .  A
O63        Ni794   1.923   1_455  S
C64          O70   1.275       .  A
C64         C272   1.490       .  S
C65         O780   1.276       .  A
C65         C232   1.479       .  S
H66          O67   0.965       .  S
O67         Ni69   1.907       .  S
O67       Ni1155   1.922   1_445  S
O67        Ni794   1.907   1_455  S
O68         Ni69   1.937       .  S
O68         C778   1.273   1_455  A
Ni69         O73   1.912       .  S
Ni69         O71   1.918       .  S
Ni69        O413   1.915   1_545  S
O70        Ni795   1.945   1_455  S
C72          O73   1.268       .  A
C72         C222   1.478       .  S
Ni74        O415   1.915   1_545  S
Ni74        O783   1.921       .  S
Ni74        O787   1.906       .  S
Ni75        O790   1.947       .  S
Ni75        O773   1.907       .  S
Ni75       O1147   1.915       .  S
H76         O413   0.967       .  S
C77          C78   1.538       .  S
C77          C83   1.529       .  S
C77          C81   1.542       .  S
C77         C235   1.526       .  S
C78          H85   1.082       .  S
C78          C79   1.366       .  D
C79          C80   1.545       .  S
C79         C225   1.494       .  S
C80          C84   1.545       .  S
C80          C82   1.541       .  S
C80          H86   1.107       .  S
C81          H87   1.086       .  S
C81          C82   1.367       .  D
C82         C245   1.483       .  S
C83          H88   1.086       .  S
C83          C84   1.366       .  D
C84         C212   1.490       .  S
C89          C90   1.531       .  S
C89          C95   1.539       .  S
C89          C93   1.543       .  S
C89         C265   1.533       .  S
C90          H97   1.086       .  S
C90          C91   1.365       .  D
C91          C92   1.546       .  S
C91         C295   1.487       .  S
C92          C96   1.544       .  S
C92          C94   1.544       .  S
C92          H98   1.107       .  S
C93          H99   1.086       .  S
C93          C94   1.371       .  D
C94         C275   1.491       .  S
C95         H100   1.078       .  S
C95          C96   1.365       .  D
C96         C252   1.497       .  S
O101       Ni107   1.905       .  S
O101        C122   1.266       .  A
O102       Ni125   1.905       .  S
O102        C111   1.267       .  A
O103       Ni107   1.921       .  S
O103       Ni125   1.911       .  S
O103       Ni119   1.911       .  S
O103        H126   0.966       .  S
C104        O121   1.267       .  A
C104        O113   1.269       .  A
C104        C162   1.472       .  S
O105       Ni124   1.917       .  S
O105        C111   1.269       .  A
O106       Ni124   1.911       .  S
O106        C108   1.272       .  A
Ni107       O110   1.919       .  S
Ni107       O112   1.905       .  S
C108        O118   1.281       .  A
C108        C202   1.494       .  S
O109       Ni125   1.907       .  S
O109        C115   1.270       .  A
O110        C115   1.269       .  A
C111        C172   1.471       .  S
O112        C114   1.268       .  A
O113       Ni124   1.919       .  S
C114        O120   1.277       .  A
C114        C152   1.483       .  S
C115        C552   1.475       .  S
H116        O117   0.964       .  S
O117       Ni125   1.918       .  S
O117       Ni119   1.916       .  S
O117       Ni124   1.922       .  S
O118       Ni119   1.955       .  S
Ni119       O123   1.915       .  S
Ni119       O121   1.896       .  S
O120       Ni125   1.949       .  S
C122        O123   1.269       .  A
C122        C185   1.480       .  S
C127        C128   1.527       .  S
C127        C133   1.535       .  S
C127        C851   1.541       .  S
C127        C165   1.520       .  S
C128        H135   1.086       .  S
C128        C129   1.364       .  D
C129       C1210   1.548   1_545  S
C129        C285   1.486       .  S
C130        C132   1.535       .  S
C130       C1209   1.545       .  S
C130        C854   1.547       .  S
C130        H136   1.107       .  S
C131        C847   1.539       .  S
C131        H137   1.086       .  S
C131        C492   1.367       .  D
C132        C491   1.365       .  D
C132        C155   1.484       .  S
C133        H138   1.077       .  S
C133        C494   1.363       .  D
C134        C850   1.550       .  S
C134        C493   1.366       .  D
C134        C175   1.493       .  S
C139        C140   1.536       .  S
C139        C145   1.529       .  S
C139        C143   1.541       .  S
C139        C195   1.525       .  S
C140        H147   1.080       .  S
C140        C141   1.367       .  D
C141        C142   1.550       .  S
C141        C182   1.498       .  S
C142        C146   1.545       .  S
C142        C144   1.545       .  S
C142        H148   1.104       .  S
C143        H149   1.086       .  S
C143        C144   1.368       .  D
C144        C205   1.491       .  S
C145        H150   1.086       .  S
C145        C146   1.364       .  D
C146        C215   1.489       .  S
C151        C152   1.407       .  A
C151        C156   1.399       .  A
C151        H157   1.083       .  S
C152        C153   1.407       .  A
C153        C154   1.400       .  A
C153        H158   1.083       .  S
C154        C155   1.403       .  A
C154        H159   1.083       .  S
C155        C156   1.404       .  A
C156        H520   1.083       .  S
H160        C516   1.083   1_545  S
C161        C162   1.400       .  A
C161        C166   1.392       .  A
C161        H167   1.083       .  S
C162        C163   1.404       .  A
C163        C164   1.392       .  A
C163        H168   1.083       .  S
C164        C165   1.405       .  A
C164        H169   1.083       .  S
C165        C166   1.413       .  A
C166        H170   1.075       .  S
C171        C172   1.403       .  A
C171        C176   1.397       .  A
C171        H177   1.083       .  S
C172        C173   1.399       .  A
C173        C174   1.397       .  A
C173        H178   1.084       .  S
C174        C175   1.413       .  A
C174        H539   1.081       .  S
C175        C176   1.405       .  A
C176        H180   1.081       .  S
H179        C534   1.081   1_545  S
C181        C182   1.403       .  A
C181        C186   1.391       .  A
C181        H187   1.077       .  S
C182        C183   1.415       .  A
C183        C184   1.400       .  A
C183        H188   1.080       .  S
C184        C185   1.400       .  A
C184        H189   1.083       .  S
C185        C186   1.407       .  A
C186        H190   1.083       .  S
C191        C192   1.401   1_545  A
C191        C196   1.398       .  A
C191        H557   1.083   1_545  S
C192        C475   1.480       .  S
C192        C193   1.408   1_565  A
C193        C194   1.394       .  A
C193        H198   1.083   1_545  S
C194        C195   1.404       .  A
C194        H199   1.083       .  S
C195        C196   1.414       .  A
C196        H200   1.079       .  S
H197        C551   1.083       .  S
C201        C202   1.408       .  A
C201        C926   1.405   1_455  A
C201        H207   1.083       .  S
C202        C203   1.408       .  A
C203        C204   1.404       .  A
C203        H208   1.083       .  S
C204        C925   1.406   1_455  A
C204        H929   1.083       .  S
C205        C206   1.404       .  A
C205        C924   1.405       .  A
C206        C921   1.402       .  A
C206        H210   1.080       .  S
H209        C924   1.083       .  S
C211        C212   1.408       .  A
C211        C216   1.398       .  A
C211        H217   1.082       .  S
C212        C213   1.404       .  A
C213        C214   1.398       .  A
C213        H218   1.082       .  S
C214        C215   1.408       .  A
C214        H219   1.082       .  S
C215        C216   1.402       .  A
C216        H220   1.082       .  S
C221        C222   1.402       .  A
C221        C226   1.398       .  A
C221        H227   1.083       .  S
C222        C223   1.405       .  A
C223        C224   1.395       .  A
C223        H228   1.083       .  S
C224        C225   1.404       .  A
C224        H229   1.079       .  S
C225        C226   1.412       .  A
C226        H230   1.081       .  S
C231        C232   1.400       .  A
C231        C236   1.396       .  A
C231        H237   1.083       .  S
C232        C233   1.407       .  A
C233        C234   1.397       .  A
C233        H958   1.083       .  S
C234        C235   1.406       .  A
C234        H239   1.083       .  S
C235        C236   1.413       .  A
C236        H240   1.079       .  S
H238        C953   1.083   1_455  S
C241        C242   1.408       .  A
C241        C246   1.403       .  A
C241        H967   1.083       .  S
C242        C243   1.407       .  A
C243        C244   1.398       .  A
C243        H248   1.083       .  S
C244        C245   1.401       .  A
C244        H249   1.080       .  S
C245        C246   1.404       .  A
C246        H250   1.083       .  S
H247        C961   1.083   1_455  S
C251        C252   1.404       .  A
C251        C256   1.398       .  A
C251        H257   1.078       .  S
C252        C253   1.412       .  A
C253        C254   1.397       .  A
C253        H258   1.081       .  S
C254        C255   1.401       .  A
C254        H259   1.083       .  S
C255        C256   1.406       .  A
C256        H260   1.083       .  S
C261        C262   1.408       .  A
C261        C266   1.399       .  A
C261        H267   1.083       .  S
C262        C263   1.400       .  A
C263        C264   1.396       .  A
C263        H268   1.083       .  S
C264        C265   1.416       .  A
C264        H269   1.076       .  S
C265        C266   1.406       .  A
C266        H270   1.083       .  S
C271        C272   1.409       .  A
C271        C276   1.406       .  A
C271        H277   1.083       .  S
C272        C273   1.407       .  A
C273        C274   1.400       .  A
C273        H278   1.083       .  S
C274        C275   1.403       .  A
C274        H279   1.078       .  S
C275        C276   1.405       .  A
C276        H280   1.083       .  S
C281        C286   1.398   1_556  A
C281       C1362   1.408       .  A
C281        H287   1.082       .  S
C282        C283   1.402   1_565  A
C282       C1361   1.408   1_455  A
C283        C284   1.398   1_556  A
C283        H288   1.083       .  S
C284        C285   1.408       .  A
C284        H289   1.083       .  S
C285       C1366   1.402   1_445  A
C286       C1365   1.403       .  A
C286        H290   1.082       .  S
C291        C292   1.402       .  A
C291        C296   1.398       .  A
C291        H297   1.083       .  S
C292        C293   1.407       .  A
C293        C294   1.397       .  A
C293        H298   1.083       .  S
C294        C295   1.403       .  A
C294        H299   1.082       .  S
C295        C296   1.408       .  A
C296        H300   1.082       .  S
C301        C302   1.400       .  A
C301        C306   1.395       .  A
C301        H307   1.083       .  S
C302        C303   1.406       .  A
C303       C1024   1.396       .  A
C303        H308   1.083       .  S
C304       C1023   1.396       .  A
C304       C1025   1.405       .  A
C304        H309   1.083   1_655  S
C305        C306   1.414       .  A
C305       C1024   1.406       .  A
C306        H310   1.077       .  S
C311        C312   1.406       .  A
C311        C316   1.401       .  A
C311        H317   1.083       .  S
C312        C313   1.408       .  A
C313        C314   1.403       .  A
C313        H318   1.083       .  S
C314        C315   1.405       .  A
C314        H319   1.083   1_545  S
C315        C316   1.404       .  A
C316        H320   1.078       .  S
C321        C322   1.399       .  A
C321        C326   1.398       .  A
C321        H327   1.083       .  S
C322        C323   1.406       .  A
C323        C324   1.388       .  A
C323        H328   1.083       .  S
C324        C325   1.401       .  A
C324       H1049   1.076       .  S
C325        C326   1.416       .  A
C326        H690   1.080   1_545  S
H329       C1044   1.076   1_455  S
H330        C686   1.080       .  S
C331        C332   1.400       .  A
C331        C336   1.397       .  A
C331        H337   1.083       .  S
C332        C333   1.402       .  A
C333        C334   1.396       .  A
C333        H338   1.083       .  S
C334        C335   1.408       .  A
C334        H339   1.079       .  S
C335        C336   1.412       .  A
C336        H340   1.080       .  S
C341        C342   1.406       .  A
C341       C1066   1.400       .  A
C341        H347   1.083       .  S
C342       C1063   1.410       .  A
C343        C344   1.401       .  A
C343       C1062   1.409   1_455  A
C343       H1068   1.083       .  S
C344        C345   1.404       .  A
C344        H349   1.083       .  S
C345        C346   1.405       .  A
C346       C1061   1.401   1_455  A
C346        H350   1.083       .  S
H348       C1063   1.083       .  S
C351        C356   1.400       .  A
C351        C712   1.402       .  A
C351        H717   1.083       .  S
C352        C711   1.399       .  A
C352        C713   1.403       .  A
C353        C354   1.394       .  A
C353        C712   1.406       .  A
C353        H358   1.083       .  S
C354        C355   1.407       .  A
C354        H359   1.081       .  S
C355        C356   1.412       .  A
C356        H360   1.082       .  S
H357        C711   1.083       .  S
O361       Ni367   1.905       .  S
O361        C382   1.266       .  A
O362       Ni385   1.900       .  S
O362        C371   1.265       .  A
O363       Ni367   1.919       .  S
O363       Ni385   1.910       .  S
O363       Ni379   1.921       .  S
O363        H386   0.969       .  S
C364        O381   1.270       .  A
C364        O373   1.271       .  A
C364        C712   1.481       .  S
O365       Ni384   1.918       .  S
O365        C371   1.269       .  A
O366       Ni384   1.910       .  S
O366        C368   1.272       .  A
Ni367       O370   1.919       .  S
Ni367       O372   1.900       .  S
C368        O378   1.279       .  A
C368        C672   1.490       .  S
O369       Ni385   1.910       .  S
O369        C375   1.269       .  A
O370        C375   1.268       .  A
C371        C692   1.468       .  S
O372        C374   1.268       .  A
O373       Ni384   1.925       .  S
C374        O380   1.279       .  A
C374        C702   1.484       .  S
C375        C662   1.478       .  S
H376        O377   0.971       .  S
O377       Ni385   1.922       .  S
O377       Ni379   1.914       .  S
O377       Ni384   1.921       .  S
O378       Ni379   1.956       .  S
Ni379       O383   1.911       .  S
Ni379       O381   1.914       .  S
O380       Ni385   1.956       .  S
C382        O383   1.269       .  A
C382        C682   1.478       .  S
C387        C388   1.529       .  S
C387        C393   1.534       .  S
C387        C391   1.543       .  S
C387        C715   1.520       .  S
C388        H395   1.086       .  S
C388        C389   1.365       .  D
C389        C390   1.543       .  S
C389        C652   1.482       .  S
C390        C394   1.546       .  S
C390        C392   1.537       .  S
C390        H396   1.106       .  S
C391        H397   1.082       .  S
C391        C392   1.364       .  D
C392        C705   1.486       .  S
C393        H398   1.084       .  S
C393        C394   1.366       .  D
C394        C695   1.491       .  S
C399        C400   1.533       .  S
C399        C405   1.527       .  S
C399       C1123   1.542       .  S
C399        C665   1.523       .  S
C400        H407   1.080       .  S
C401       C1122   1.549       .  S
C401        C685   1.499       .  S
C402       C1121   1.551   1_455  S
C402        C406   1.546   1_455  S
C402        C404   1.548       .  S
C402        H408   1.106       .  S
C403       C1119   1.542   1_455  S
C403        H409   1.086       .  S
C404        C675   1.495       .  S
C405        H410   1.086       .  S
C405        C766   1.363       .  D
C406        C765   1.365       .  D
C406        C642   1.489   1_655  S
O411        C432   1.270       .  A
O412       Ni435   1.914       .  S
O412        C421   1.271       .  A
O413       Ni417   1.900       .  S
O413      Ni1155   1.905   1_455  S
C414        O431   1.279       .  A
C414        O423   1.276       .  A
C414        C622   1.475       .  S
O415        C421   1.269       .  A
O416       Ni434   1.911       .  S
O416        C418   1.270       .  A
Ni417       O420   1.912       .  S
Ni417       O422   1.908       .  S
C418       O1148   1.278       .  A
C418        C602   1.493       .  S
O419       Ni435   1.933       .  S
O419        C425   1.281       .  A
O420       C1145   1.276   1_455  A
C421        C615   1.477       .  S
O422        C424   1.270       .  A
O423      Ni1154   1.910   1_455  S
C424        O430   1.276       .  A
C424        C632   1.487       .  S
C425       O1140   1.276       .  A
C425        C592   1.479       .  S
H426        O427   0.965       .  S
O427       Ni795   1.915   1_455  S
O427       Ni429   1.905       .  S
O427      Ni1154   1.900   1_455  S
O428       Ni429   1.942       .  S
O428       C1138   1.277   1_455  A
Ni429       O433   1.914       .  S
Ni429       O431   1.927       .  S
O430      Ni1155   1.939   1_455  S
C432        O433   1.270       .  A
C432        C582   1.477       .  S
Ni434      O1143   1.909       .  S
Ni434      O1147   1.901       .  S
Ni435      O1150   1.941       .  S
Ni435      O1133   1.905       .  S
Ni435       O787   1.921   1_565  S
C437        C438   1.535       .  S
C437        C443   1.541       .  S
C437        C441   1.543       .  S
C437        C595   1.532       .  S
C438        H445   1.084       .  S
C438        C439   1.367       .  D
C439        C440   1.546       .  S
C439        C585   1.493       .  S
C440        C444   1.541       .  S
C440        C442   1.541       .  S
C440        H446   1.107       .  S
C441        H447   1.086       .  S
C441        C442   1.369       .  D
C442        C605   1.490       .  S
C443        H448   1.081       .  S
C443        C444   1.363       .  D
C444        C572   1.487       .  S
C449        C450   1.537       .  S
C449        C455   1.536       .  S
C449        C453   1.542       .  S
C449        C625   1.528       .  S
C450        H457   1.080       .  S
C450        C451   1.361       .  D
C451        C452   1.541       .  S
C451        C655   1.486       .  S
C452        C456   1.546       .  S
C452        C454   1.538       .  S
C452        H458   1.107       .  S
C453        H459   1.086       .  S
C453        C454   1.368       .  D
C454        C635   1.486       .  S
C455        H460   1.084       .  S
C455        C456   1.367       .  D
C456        C612   1.491       .  S
O461       Ni467   1.907       .  S
O461        C482   1.267       .  A
O462       Ni485   1.904       .  S
O462        C471   1.268       .  A
O463       Ni467   1.916       .  S
O463       Ni485   1.910       .  S
O463       Ni479   1.917       .  S
O463        H486   0.966       .  S
C464        O481   1.269       .  A
C464        O473   1.267       .  A
C464        C522   1.470       .  S
O465       Ni484   1.908       .  S
O465        C471   1.266       .  A
O466       Ni484   1.906       .  S
O466        C468   1.272       .  A
Ni467       O470   1.918       .  S
Ni467       O472   1.901       .  S
C468        O478   1.277       .  A
C468        C562   1.483       .  S
O469       Ni485   1.913       .  S
O469        C475   1.271       .  A
O470        C475   1.269       .  A
C471        C532   1.467       .  S
O472        C474   1.268       .  A
O473       Ni484   1.912       .  S
C474        O480   1.279       .  A
C474        C512   1.486       .  S
H476        O477   0.964       .  S
O477       Ni485   1.926       .  S
O477       Ni479   1.917       .  S
O477       Ni484   1.924       .  S
O478       Ni479   1.947       .  S
Ni479       O483   1.910       .  S
Ni479       O481   1.915       .  S
O480       Ni485   1.954       .  S
C482        O483   1.267       .  A
C482        C545   1.477       .  S
C487        C488   1.528       .  S
C487        C493   1.532       .  S
C487       C1211   1.545   1_455  S
C487        C525   1.522       .  S
C488        H495   1.086       .  S
C488        C489   1.364       .  D
C489        C850   1.546       .  S
C489        C645   1.487       .  S
C490        C849   1.550   1_565  S
C490       C1214   1.543   1_565  S
C490        C492   1.542   1_565  S
C490        H496   1.108       .  S
C491       C1207   1.546       .  S
C491        H497   1.082       .  S
C492        C515   1.489   1_545  S
C493        H498   1.084       .  S
C494       C1210   1.544   1_545  S
C494        C535   1.487   1_545  S
C499        C500   1.536       .  S
C499        C505   1.529       .  S
C499        C503   1.540       .  S
C499        C555   1.520       .  S
C500        H507   1.082       .  S
C500        C501   1.365       .  D
C501        C502   1.548       .  S
C501        C542   1.494       .  S
C502        C506   1.543       .  S
C502        C504   1.543       .  S
C502        H508   1.106       .  S
C503        H509   1.086       .  S
C503        C504   1.367       .  D
C504        C565   1.487       .  S
C505        H510   1.086       .  S
C505        C506   1.363       .  D
C506        C575   1.485       .  S
C511        C512   1.406       .  A
C511        C516   1.402       .  A
C511        H517   1.083       .  S
C512        C513   1.408       .  A
C513        C514   1.401       .  A
C513        H518   1.083       .  S
C514        C515   1.404       .  A
C514        H519   1.083       .  S
C515        C516   1.406       .  A
C521        C522   1.398       .  A
C521        C526   1.399       .  A
C521        H527   1.083       .  S
C522        C523   1.404       .  A
C523        C524   1.390       .  A
C523        H528   1.084       .  S
C524        C525   1.406       .  A
C524        H529   1.078   1_455  S
C525        C526   1.413       .  A
C526        H530   1.083       .  S
C531        C532   1.406       .  A
C531        C536   1.398       .  A
C531        H537   1.083       .  S
C532        C533   1.397       .  A
C533        C534   1.392       .  A
C533        H538   1.084       .  S
C534        C535   1.411       .  A
C535        C536   1.403       .  A
C536        H540   1.082       .  S
C541        C542   1.401       .  A
C541        C546   1.388       .  A
C541        H547   1.076       .  S
C542        C543   1.414       .  A
C543        C544   1.400       .  A
C543        H548   1.081       .  S
C544        C545   1.401       .  A
C544        H549   1.083       .  S
C545        C546   1.405       .  A
C546        H550   1.083       .  S
C551        C552   1.399       .  A
C551        C556   1.394       .  A
C552        C553   1.408       .  A
C553        C554   1.393       .  A
C553        H558   1.083       .  S
C554        C555   1.404       .  A
C554        H559   1.083       .  S
C555        C556   1.412       .  A
C556        H560   1.080       .  S
C561        C562   1.404       .  A
C561       C1286   1.396   1_455  A
C561        H567   1.083       .  S
C562        C563   1.409       .  A
C563        C564   1.401       .  A
C563        H568   1.083       .  S
C564       C1285   1.403   1_455  A
C564       H1289   1.083       .  S
C565       C1284   1.404       .  A
C565        C566   1.403       .  A
C566       C1281   1.399       .  A
C566        H570   1.077       .  S
H569       C1284   1.083       .  S
C571        C572   1.408       .  A
C571        C576   1.398       .  A
C571        H577   1.083       .  S
C572        C573   1.403       .  A
C573        C574   1.399       .  A
C573        H578   1.083       .  S
C574        C575   1.407       .  A
C574        H579   1.083       .  S
C575        C576   1.402       .  A
C576        H580   1.083       .  S
C581        C582   1.402       .  A
C581        C586   1.400       .  A
C581        H587   1.083       .  S
C582        C583   1.405       .  A
C583        C584   1.391       .  A
C583        H588   1.083       .  S
C584        C585   1.403       .  A
C584        H589   1.079       .  S
C585        C586   1.413       .  A
C586        H590   1.081       .  S
C591        C592   1.403       .  A
C591        C596   1.402       .  A
C591        H597   1.083       .  S
C592        C593   1.403       .  A
C593        C594   1.394       .  A
C593       H1318   1.083       .  S
C594        C595   1.410       .  A
C594        H599   1.077       .  S
C595        C596   1.412       .  A
C596        H600   1.083       .  S
H598       C1313   1.083       .  S
C601        C602   1.409       .  A
C601        C606   1.408       .  A
C601       H1327   1.083       .  S
C602        C603   1.408       .  A
C603        C604   1.401       .  A
C603        H608   1.083       .  S
C604        C605   1.402       .  A
C604        H609   1.082       .  S
C605        C606   1.406       .  A
C606        H610   1.083       .  S
H607       C1321   1.083   1_455  S
C611        C612   1.402       .  A
C611        C616   1.390       .  A
C611        H617   1.078       .  S
C612        C613   1.412       .  A
C613        C614   1.400       .  A
C613        H618   1.081       .  S
C614        C615   1.401       .  A
C614        H619   1.083       .  S
C615        C616   1.406       .  A
C616        H620   1.083       .  S
C621        C622   1.401       .  A
C621        C626   1.392       .  A
C621        H627   1.083       .  S
C622        C623   1.403       .  A
C623        C624   1.400       .  A
C623        H628   1.083       .  S
C624        C625   1.410       .  A
C624        H629   1.083       .  S
C625        C626   1.411       .  A
C626        H630   1.077       .  S
C631        C632   1.408       .  A
C631        C636   1.406       .  A
C631        H637   1.083       .  S
C632        C633   1.406       .  A
C633        C634   1.399       .  A
C633        H638   1.083       .  S
C634        C635   1.402       .  A
C634        H639   1.080       .  S
C635        C636   1.405       .  A
C636        H640   1.083       .  S
C641       C1002   1.407       .  A
C641        C646   1.397   1_556  A
C641        H647   1.082       .  S
C642       C1001   1.408   1_455  A
C642        C643   1.403       .  A
C643        C644   1.399   1_556  A
C643        H648   1.082       .  S
C644        C645   1.408       .  A
C644        H649   1.083       .  S
C645       C1006   1.402   1_455  A
C646       C1005   1.401   1_565  A
C646        H650   1.082       .  S
C651        C652   1.401       .  A
C651        C656   1.395       .  A
C651        H657   1.082       .  S
C652        C653   1.408       .  A
C653        C654   1.397       .  A
C653        H658   1.082       .  S
C654        C655   1.402       .  A
C654        H659   1.082       .  S
C655        C656   1.409       .  A
C656        H660   1.082       .  S
C661        C662   1.401       .  A
C661        C666   1.397       .  A
C661        H667   1.083       .  S
C662        C663   1.407       .  A
C663       C1384   1.393       .  A
C663        H668   1.083       .  S
C664       C1383   1.394       .  A
C664       C1385   1.404       .  A
C664        H669   1.083   1_655  S
C665       C1384   1.404       .  A
C665        C666   1.414       .  A
C666        H670   1.079       .  S
C671        C672   1.406       .  A
C671        C676   1.401       .  A
C671        H677   1.083       .  S
C672        C673   1.408       .  A
C673        C674   1.404       .  A
C673        H678   1.083       .  S
C674        C675   1.407       .  A
C674        H679   1.083       .  S
C675        C676   1.404       .  A
C676        H680   1.078       .  S
C681        C682   1.400       .  A
C681        C686   1.398       .  A
C681        H687   1.083       .  S
C682        C683   1.406       .  A
C683        C684   1.391       .  A
C683        H688   1.083       .  S
C684        C685   1.404       .  A
C684       H1409   1.076       .  S
C685        C686   1.415       .  A
H689       C1404   1.077   1_455  S
C691        C692   1.400       .  A
C691        C696   1.397       .  A
C691        H697   1.084       .  S
C692        C693   1.401       .  A
C693        C694   1.394       .  A
C693        H698   1.083       .  S
C694        C695   1.405       .  A
C694        H699   1.080       .  S
C695        C696   1.412       .  A
C696        H700   1.081       .  S
C701        C702   1.407       .  A
C701       C1426   1.402       .  A
C701        H707   1.083       .  S
C702       C1423   1.406       .  A
C703       C1422   1.408   1_455  A
C703        C704   1.399       .  A
C703       H1428   1.083       .  S
C704        C705   1.403       .  A
C704        H709   1.083       .  S
C705        C706   1.406       .  A
C706       C1421   1.400   1_455  A
C706        H710   1.083       .  S
H708       C1423   1.083       .  S
C711        C716   1.397   1_545  A
C713        C714   1.390   1_545  A
C713        H718   1.084       .  S
C714        C715   1.406       .  A
C714        H719   1.077       .  S
C715        C716   1.412       .  A
C716        H720   1.083       .  S
O721       Ni727   1.903       .  S
O721        C742   1.266       .  A
O722       Ni745   1.901       .  S
O722        C731   1.266       .  A
O723       Ni727   1.921       .  S
O723       Ni745   1.909       .  S
O723       Ni739   1.915       .  S
O723        H746   0.971       .  S
C724        O741   1.269       .  A
C724        O733   1.270       .  A
C724       C1072   1.474       .  S
O725       Ni744   1.918       .  S
O725        C731   1.269       .  A
O726       Ni744   1.912       .  S
O726        C728   1.271       .  A
Ni727       O730   1.920       .  S
Ni727       O732   1.902       .  S
C728        O738   1.279       .  A
C728       C1032   1.489       .  S
O729       Ni745   1.905       .  S
O729        C735   1.269       .  A
O730        C735   1.269       .  A
C731       C1052   1.467       .  S
O732        C734   1.268       .  A
O733       Ni744   1.922       .  S
C734        O740   1.279       .  A
C734       C1062   1.487       .  S
C735       C1022   1.477       .  S
H736        O737   0.969       .  S
O737       Ni745   1.917       .  S
O737       Ni739   1.913       .  S
O737       Ni744   1.922       .  S
O738       Ni739   1.955       .  S
Ni739       O743   1.908       .  S
Ni739       O741   1.904       .  S
O740       Ni745   1.955       .  S
C742        O743   1.268       .  A
C742       C1042   1.475       .  S
C747        C748   1.528       .  S
C747        C753   1.536       .  S
C747        C751   1.545       .  S
C747       C1075   1.524       .  S
C748        H755   1.086       .  S
C748        C749   1.364       .  D
C749        C750   1.544       .  S
C749       C1012   1.484       .  S
C750        C754   1.545       .  S
C750        C752   1.540       .  S
C750        H756   1.108       .  S
C751        H757   1.083       .  S
C751        C752   1.367       .  D
C752       C1065   1.490       .  S
C753        H758   1.085       .  S
C753        C754   1.367       .  D
C754       C1055   1.489       .  S
C759        C760   1.534       .  S
C759        C765   1.530       .  S
C759       C1025   1.525       .  S
C760        H767   1.079       .  S
C760       C1121   1.363       .  D
C761       C1120   1.366   1_545  D
C761       C1045   1.495       .  S
C762        C766   1.543   1_545  S
C762        C764   1.546       .  S
C762        H768   1.105       .  S
C763        H769   1.086       .  S
C763       C1124   1.368       .  D
C764       C1123   1.370   1_545  D
C764       C1035   1.496       .  S
C765        H770   1.086       .  S
C766       C1002   1.486       .  S
O771      Ni1137   1.919   1_545  S
O771        C792   1.270       .  A
O772       Ni795   1.915       .  S
O772        C781   1.270       .  A
O773       Ni777   1.908       .  S
O773      Ni1149   1.920       .  S
O773       H1156   0.966       .  S
C774        O791   1.278       .  A
C774        O783   1.275       .  A
C774        C982   1.481       .  S
O775      Ni1154   1.917       .  S
O775        C781   1.269       .  A
O776       Ni794   1.903       .  S
O776        C778   1.268       .  A
Ni777      O1131   1.918       .  S
Ni777       O780   1.926       .  S
Ni777       O782   1.907       .  S
C778        C962   1.484       .  S
O779       Ni795   1.915       .  S
O779        C785   1.278       .  A
C781        C975   1.479       .  S
O782        C784   1.268       .  A
C784        O790   1.276       .  A
C784        C992   1.489       .  S
C785        C952   1.479       .  S
H786        O787   0.965       .  S
O787       Ni789   1.906       .  S
O788       Ni789   1.937       .  S
Ni789       O793   1.912       .  S
Ni789       O791   1.917       .  S
Ni789      O1133   1.913   1_545  S
C792        O793   1.268       .  A
C792        C942   1.479       .  S
Ni794      O1135   1.917   1_545  S
H796       O1133   0.967       .  S
C797        C798   1.539       .  S
C797        C803   1.528       .  S
C797        C801   1.541       .  S
C797        C955   1.527       .  S
C798        H805   1.081       .  S
C798        C799   1.367       .  D
C799        C800   1.547       .  S
C799        C945   1.497       .  S
C800        C804   1.547       .  S
C800        C802   1.544       .  S
C800        H806   1.106       .  S
C801        H807   1.086       .  S
C801        C802   1.368       .  D
C802        C965   1.488       .  S
C803        H808   1.086       .  S
C803        C804   1.366       .  D
C804        C932   1.492       .  S
C809        C810   1.530       .  S
C809        C815   1.537       .  S
C809        C813   1.542       .  S
C809        C985   1.533       .  S
C810        H817   1.086       .  S
C810        C811   1.365       .  D
C811        C812   1.548       .  S
C811       C1015   1.489       .  S
C812        C816   1.548       .  S
C812        C814   1.547       .  S
C812        H818   1.107       .  S
C813        H819   1.086       .  S
C813        C814   1.372       .  D
C814        C995   1.496       .  S
C815        H820   1.076       .  S
C815        C816   1.365       .  D
C816        C972   1.499       .  S
O821       Ni827   1.907       .  S
O821        C842   1.267       .  A
O822       Ni845   1.905       .  S
O822        C831   1.267       .  A
O823       Ni827   1.920       .  S
O823       Ni845   1.912       .  S
O823       Ni839   1.910       .  S
O823        H846   0.966       .  S
C824        O841   1.266       .  A
C824        O833   1.269       .  A
C824        C882   1.470       .  S
O825       Ni844   1.916       .  S
O825        C831   1.268       .  A
O826       Ni844   1.909       .  S
O826        C828   1.272       .  A
Ni827       O830   1.917       .  S
Ni827       O832   1.905       .  S
C828        O838   1.280       .  A
C828        C922   1.489       .  S
O829       Ni845   1.907       .  S
O829        C835   1.270       .  A
O830        C835   1.269       .  A
C831        C892   1.472       .  S
O832        C834   1.268       .  A
O833       Ni844   1.917       .  S
C834        O840   1.278       .  A
C834        C872   1.485       .  S
C835       C1272   1.474       .  S
H836        O837   0.964       .  S
O837       Ni845   1.919       .  S
O837       Ni839   1.917       .  S
O837       Ni844   1.924       .  S
O838       Ni839   1.951       .  S
Ni839       O843   1.916       .  S
Ni839       O841   1.894       .  S
O840       Ni845   1.951       .  S
C842        O843   1.269       .  A
C842        C905   1.481       .  S
C847        C848   1.529       .  S
C847        C853   1.534       .  S
C847        C885   1.521       .  S
C848        H855   1.086       .  S
C848        C849   1.365       .  D
C849       C1005   1.487       .  S
C850        C852   1.539   1_455  S
C850        H856   1.107   1_455  S
C851        H857   1.086   1_455  S
C851       C1212   1.368   1_455  D
C852       C1211   1.367       .  D
C852        C875   1.489       .  S
C853        H858   1.076       .  S
C853       C1214   1.361       .  D
C854       C1213   1.368       .  D
C854        C895   1.494       .  S
C859        C860   1.537       .  S
C859        C865   1.527       .  S
C859        C863   1.542       .  S
C859        C915   1.526       .  S
C860        H867   1.080       .  S
C860        C861   1.367       .  D
C861        C862   1.552       .  S
C861        C902   1.501       .  S
C862        C866   1.549       .  S
C862        C864   1.547       .  S
C862        H868   1.104       .  S
C863        H869   1.086       .  S
C863        C864   1.369       .  D
C864        C925   1.496       .  S
C865        H870   1.086       .  S
C865        C866   1.364       .  D
C866        C935   1.492       .  S
C871        C872   1.406       .  A
C871        C876   1.399       .  A
C871        H877   1.083       .  S
C872        C873   1.407       .  A
C873        C874   1.401       .  A
C873        H878   1.083       .  S
C874        C875   1.404       .  A
C874        H879   1.083       .  S
C875        C876   1.406       .  A
C876       H1240   1.083       .  S
H880       C1236   1.083   1_545  S
C881        C882   1.399       .  A
C881        C886   1.390       .  A
C881        H887   1.084       .  S
C882        C883   1.404       .  A
C883        C884   1.393       .  A
C883        H888   1.083       .  S
C884        C885   1.405       .  A
C884        H889   1.083       .  S
C885        C886   1.413       .  A
C886        H890   1.074       .  S
C891        C892   1.403       .  A
C891        C896   1.397       .  A
C891        H897   1.083       .  S
C892        C893   1.399       .  A
C893        C894   1.397       .  A
C893        H898   1.084       .  S
C894        C895   1.412       .  A
C894       H1259   1.080       .  S
C895        C896   1.406       .  A
C896        H900   1.080       .  S
H899       C1254   1.081   1_545  S
C901        C902   1.404       .  A
C901        C906   1.391       .  A
C901        H907   1.077       .  S
C902        C903   1.416       .  A
C903        C904   1.401       .  A
C903        H908   1.080       .  S
C904        C905   1.401       .  A
C904        H909   1.083       .  S
C905        C906   1.406       .  A
C906        H910   1.083       .  S
C911        C912   1.401   1_545  A
C911        C916   1.398       .  A
C911       H1277   1.083   1_545  S
C912       C1195   1.481       .  S
C912        C913   1.408   1_565  A
C913        C914   1.395       .  A
C913        H918   1.083   1_545  S
C914        C915   1.404       .  A
C914        H919   1.083       .  S
C915        C916   1.414       .  A
C916        H920   1.079       .  S
H917       C1271   1.083       .  S
C921        C922   1.408       .  A
C921        H927   1.083       .  S
C922        C923   1.408       .  A
C923        C924   1.403       .  A
C923        H928   1.083       .  S
C925        C926   1.405       .  A
C926        H930   1.080       .  S
C931        C932   1.409       .  A
C931        C936   1.399       .  A
C931        H937   1.082       .  S
C932        C933   1.403       .  A
C933        C934   1.399       .  A
C933        H938   1.082       .  S
C934        C935   1.410       .  A
C934        H939   1.082       .  S
C935        C936   1.402       .  A
C936        H940   1.082       .  S
C941        C942   1.402       .  A
C941        C946   1.399       .  A
C941        H947   1.083       .  S
C942        C943   1.405       .  A
C943        C944   1.395       .  A
C943        H948   1.083       .  S
C944        C945   1.404       .  A
C944        H949   1.077       .  S
C945        C946   1.413       .  A
C946        H950   1.081       .  S
C951        C952   1.400       .  A
C951        C956   1.395       .  A
C951        H957   1.083       .  S
C952        C953   1.407       .  A
C953        C954   1.398       .  A
C954        C955   1.407       .  A
C954        H959   1.083       .  S
C955        C956   1.413       .  A
C956        H960   1.078       .  S
C961        C962   1.408       .  A
C961        C966   1.404       .  A
C962        C963   1.405       .  A
C963        C964   1.398       .  A
C963        H968   1.083       .  S
C964        C965   1.402       .  A
C964        H969   1.078       .  S
C965        C966   1.405       .  A
C966        H970   1.083       .  S
C971        C972   1.404       .  A
C971        C976   1.397       .  A
C971        H977   1.077       .  S
C972        C973   1.414       .  A
C973        C974   1.397       .  A
C973        H978   1.081       .  S
C974        C975   1.400       .  A
C974        H979   1.083       .  S
C975        C976   1.406       .  A
C976        H980   1.083       .  S
C981        C982   1.407       .  A
C981        C986   1.398       .  A
C981        H987   1.083       .  S
C982        C983   1.399       .  A
C983        C984   1.395       .  A
C983        H988   1.083       .  S
C984        C985   1.416       .  A
C984        H989   1.075       .  S
C985        C986   1.406       .  A
C986        H990   1.083       .  S
C991        C992   1.408       .  A
C991        C996   1.405       .  A
C991        H997   1.083       .  S
C992        C993   1.406       .  A
C993        C994   1.402       .  A
C993        H998   1.083       .  S
C994        C995   1.405       .  A
C994        H999   1.076       .  S
C995        C996   1.406       .  A
C996       H1000   1.083       .  S
C1001      C1006   1.399   1_556  A
C1001      H1007   1.082       .  S
C1002      C1003   1.403   1_565  A
C1003      C1004   1.399   1_556  A
C1003      H1008   1.083       .  S
C1004      C1005   1.410       .  A
C1004      H1009   1.083       .  S
C1006      H1010   1.083       .  S
C1011      C1012   1.401       .  A
C1011      C1016   1.399       .  A
C1011      H1017   1.083       .  S
C1012      C1013   1.407       .  A
C1013      C1014   1.398       .  A
C1013      H1018   1.083       .  S
C1014      C1015   1.402       .  A
C1014      H1019   1.082       .  S
C1015      C1016   1.410       .  A
C1016      H1020   1.082       .  S
C1021      C1022   1.400       .  A
C1021      C1026   1.394       .  A
C1021      H1027   1.083       .  S
C1022      C1023   1.407       .  A
C1023      H1028   1.083       .  S
C1024      H1029   1.083       .  S
C1025      C1026   1.414       .  A
C1026      H1030   1.078       .  S
C1031      C1032   1.406       .  A
C1031      C1036   1.403       .  A
C1031      H1037   1.083       .  S
C1032      C1033   1.407       .  A
C1033      C1034   1.402       .  A
C1033      H1038   1.083       .  S
C1034      C1035   1.407       .  A
C1034      H1039   1.083   1_545  S
C1035      C1036   1.406       .  A
C1036      H1040   1.079       .  S
C1041      C1042   1.400       .  A
C1041      C1046   1.398       .  A
C1041      H1047   1.083       .  S
C1042      C1043   1.405       .  A
C1043      C1044   1.389       .  A
C1043      H1048   1.083       .  S
C1044      C1045   1.403       .  A
C1045      C1046   1.415       .  A
C1046      H1410   1.080   1_545  S
H1050      C1406   1.080       .  S
C1051      C1052   1.400       .  A
C1051      C1056   1.397       .  A
C1051      H1057   1.084       .  S
C1052      C1053   1.402       .  A
C1053      C1054   1.396       .  A
C1053      H1058   1.083       .  S
C1054      C1055   1.405       .  A
C1054      H1059   1.081       .  S
C1055      C1056   1.410       .  A
C1056      H1060   1.081       .  S
C1061      C1062   1.406       .  A
C1061      H1067   1.083       .  S
C1063      C1064   1.403       .  A
C1064      C1065   1.404       .  A
C1064      H1069   1.083       .  S
C1065      C1066   1.405       .  A
C1066      H1070   1.083       .  S
C1071      C1432   1.400       .  A
C1071      C1076   1.399       .  A
C1071      H1437   1.083       .  S
C1072      C1431   1.401       .  A
C1072      C1433   1.406       .  A
C1073      C1432   1.405       .  A
C1073      C1074   1.393       .  A
C1073      H1078   1.083       .  S
C1074      C1075   1.406       .  A
C1074      H1079   1.079       .  S
C1075      C1076   1.412       .  A
C1076      H1080   1.083       .  S
H1077      C1431   1.083       .  S
O1081     Ni1087   1.899       .  S
O1081      C1102   1.266       .  A
O1082     Ni1105   1.895       .  S
O1082      C1091   1.264       .  A
O1083     Ni1087   1.920       .  S
O1083     Ni1105   1.909       .  S
O1083     Ni1099   1.924       .  S
O1083      H1106   0.969       .  S
C1084      O1101   1.271       .  A
C1084      O1093   1.269       .  A
C1084      C1432   1.475       .  S
O1085     Ni1104   1.916       .  S
O1085      C1091   1.267       .  A
O1086     Ni1104   1.904       .  S
O1086      C1088   1.271       .  A
Ni1087     O1090   1.920       .  S
Ni1087     O1092   1.899       .  S
C1088      O1098   1.280       .  A
C1088      C1392   1.488       .  S
O1089     Ni1105   1.908       .  S
O1089      C1095   1.268       .  A
O1090      C1095   1.268       .  A
C1091      C1412   1.464       .  S
O1092      C1094   1.268       .  A
O1093     Ni1104   1.918       .  S
C1094      O1100   1.279       .  A
C1094      C1422   1.484       .  S
C1095      C1382   1.479       .  S
H1096      O1097   0.971       .  S
O1097     Ni1105   1.918       .  S
O1097     Ni1099   1.916       .  S
O1097     Ni1104   1.920       .  S
O1098     Ni1099   1.957       .  S
Ni1099     O1103   1.918       .  S
Ni1099     O1101   1.916       .  S
O1100     Ni1105   1.953       .  S
C1102      O1103   1.271       .  A
C1102      C1402   1.479       .  S
C1107      C1108   1.526       .  S
C1107      C1113   1.537       .  S
C1107      C1111   1.543       .  S
C1107      C1435   1.518       .  S
C1108      H1115   1.086       .  S
C1108      C1109   1.364       .  D
C1109      C1110   1.543       .  S
C1109      C1372   1.485       .  S
C1110      C1114   1.542       .  S
C1110      C1112   1.540       .  S
C1110      H1116   1.106       .  S
C1111      H1117   1.086       .  S
C1111      C1112   1.368       .  D
C1112      C1425   1.489       .  S
C1113      H1118   1.081       .  S
C1113      C1114   1.364       .  D
C1114      C1415   1.487       .  S
C1119      C1120   1.536       .  S
C1119      C1125   1.530       .  S
C1119      C1385   1.525       .  S
C1120      H1127   1.078       .  S
C1121      C1405   1.497       .  S
C1122      C1126   1.544       .  S
C1122      C1124   1.543       .  S
C1122      H1128   1.104       .  S
C1123      H1129   1.086       .  S
C1124      C1395   1.490       .  S
C1125      H1130   1.086       .  S
C1126      C1362   1.488       .  S
O1131      C1152   1.270       .  A
O1132     Ni1155   1.914       .  S
O1132      C1141   1.271       .  A
O1133     Ni1137   1.897       .  S
C1134      O1151   1.280       .  A
C1134      O1143   1.276       .  A
C1134      C1342   1.476       .  S
O1135      C1141   1.270       .  A
O1136     Ni1154   1.910       .  S
O1136      C1138   1.270       .  A
Ni1137     O1140   1.911       .  S
Ni1137     O1142   1.909       .  S
C1138      C1322   1.489       .  S
O1139     Ni1155   1.932       .  S
O1139      C1145   1.281       .  A
C1141      C1335   1.478       .  S
O1142      C1144   1.270       .  A
C1144      O1150   1.276       .  A
C1144      C1352   1.491       .  S
C1145      C1312   1.480       .  S
H1146      O1147   0.965       .  S
O1147     Ni1149   1.907       .  S
O1148     Ni1149   1.946       .  S
Ni1149     O1153   1.918       .  S
Ni1149     O1151   1.930       .  S
C1152      O1153   1.272       .  A
C1152      C1302   1.481       .  S
C1157      C1158   1.537       .  S
C1157      C1163   1.539       .  S
C1157      C1161   1.541       .  S
C1157      C1315   1.532       .  S
C1158      H1165   1.083       .  S
C1158      C1159   1.369       .  D
C1159      C1160   1.548       .  S
C1159      C1305   1.497       .  S
C1160      C1164   1.541       .  S
C1160      C1162   1.541       .  S
C1160      H1166   1.106       .  S
C1161      H1167   1.086       .  S
C1161      C1162   1.368       .  D
C1162      C1325   1.490       .  S
C1163      H1168   1.081       .  S
C1163      C1164   1.364       .  D
C1164      C1292   1.486       .  S
C1169      C1170   1.538       .  S
C1169      C1175   1.536       .  S
C1169      C1173   1.543       .  S
C1169      C1345   1.530       .  S
C1170      H1177   1.080       .  S
C1170      C1171   1.362       .  D
C1171      C1172   1.541       .  S
C1171      C1375   1.486       .  S
C1172      C1176   1.545       .  S
C1172      C1174   1.537       .  S
C1172      H1178   1.107       .  S
C1173      H1179   1.086       .  S
C1173      C1174   1.369       .  D
C1174      C1355   1.486       .  S
C1175      H1180   1.085       .  S
C1175      C1176   1.366       .  D
C1176      C1332   1.490       .  S
O1181     Ni1187   1.907       .  S
O1181      C1202   1.266       .  A
O1182     Ni1205   1.905       .  S
O1182      C1191   1.268       .  A
O1183     Ni1187   1.916       .  S
O1183     Ni1205   1.909       .  S
O1183     Ni1199   1.916       .  S
O1183      H1206   0.966       .  S
C1184      O1201   1.269       .  A
C1184      O1193   1.267       .  A
C1184      C1242   1.472       .  S
O1185     Ni1204   1.906       .  S
O1185      C1191   1.265       .  A
O1186     Ni1204   1.907       .  S
O1186      C1188   1.272       .  A
Ni1187     O1190   1.917       .  S
Ni1187     O1192   1.898       .  S
C1188      O1198   1.278       .  A
C1188      C1282   1.484       .  S
O1189     Ni1205   1.916       .  S
O1189      C1195   1.272       .  A
O1190      C1195   1.270       .  A
C1191      C1252   1.466       .  S
O1192      C1194   1.267       .  A
O1193     Ni1204   1.915       .  S
C1194      O1200   1.279       .  A
C1194      C1232   1.485       .  S
H1196      O1197   0.964       .  S
O1197     Ni1205   1.929       .  S
O1197     Ni1199   1.916       .  S
O1197     Ni1204   1.924       .  S
O1198     Ni1199   1.948       .  S
Ni1199     O1203   1.908       .  S
Ni1199     O1201   1.918       .  S
O1200     Ni1205   1.955       .  S
C1202      O1203   1.267       .  A
C1202      C1265   1.475       .  S
C1207      C1208   1.529       .  S
C1207      C1213   1.533       .  S
C1207      C1245   1.525       .  S
C1208      H1215   1.086       .  S
C1208      C1209   1.365       .  D
C1209      C1365   1.486       .  S
C1210      C1212   1.542   1_465  S
C1210      H1216   1.108   1_455  S
C1211      H1217   1.082       .  S
C1212      C1235   1.489   1_545  S
C1213      H1218   1.084       .  S
C1214      C1255   1.486   1_545  S
C1219      C1220   1.536       .  S
C1219      C1225   1.529       .  S
C1219      C1223   1.541       .  S
C1219      C1275   1.518       .  S
C1220      H1227   1.082       .  S
C1220      C1221   1.364       .  D
C1221      C1222   1.545       .  S
C1221      C1262   1.491       .  S
C1222      C1226   1.542       .  S
C1222      C1224   1.541       .  S
C1222      H1228   1.106       .  S
C1223      H1229   1.086       .  S
C1223      C1224   1.366       .  D
C1224      C1285   1.482       .  S
C1225      H1230   1.086       .  S
C1225      C1226   1.363       .  D
C1226      C1295   1.483       .  S
C1231      C1232   1.406       .  A
C1231      C1236   1.403       .  A
C1231      H1237   1.083       .  S
C1232      C1233   1.408       .  A
C1233      C1234   1.400       .  A
C1233      H1238   1.083       .  S
C1234      C1235   1.404       .  A
C1234      H1239   1.083       .  S
C1235      C1236   1.406       .  A
C1241      C1242   1.399       .  A
C1241      C1246   1.400       .  A
C1241      H1247   1.083       .  S
C1242      C1243   1.404       .  A
C1243      C1244   1.391       .  A
C1243      H1248   1.084       .  S
C1244      C1245   1.406       .  A
C1244      H1249   1.077       .  S
C1245      C1246   1.413       .  A
C1246      H1250   1.083       .  S
C1251      C1252   1.406       .  A
C1251      C1256   1.397       .  A
C1251      H1257   1.083       .  S
C1252      C1253   1.396       .  A
C1253      C1254   1.391       .  A
C1253      H1258   1.084       .  S
C1254      C1255   1.412       .  A
C1255      C1256   1.403       .  A
C1256      H1260   1.082       .  S
C1261      C1262   1.401       .  A
C1261      C1266   1.388       .  A
C1261      H1267   1.077       .  S
C1262      C1263   1.413       .  A
C1263      C1264   1.398       .  A
C1263      H1268   1.081       .  S
C1264      C1265   1.401       .  A
C1264      H1269   1.083       .  S
C1265      C1266   1.405       .  A
C1266      H1270   1.083       .  S
C1271      C1272   1.399       .  A
C1271      C1276   1.394       .  A
C1272      C1273   1.407       .  A
C1273      C1274   1.392       .  A
C1273      H1278   1.083       .  S
C1274      C1275   1.404       .  A
C1274      H1279   1.083       .  S
C1275      C1276   1.412       .  A
C1276      H1280   1.080       .  S
C1281      C1282   1.405       .  A
C1281      H1287   1.083       .  S
C1282      C1283   1.408       .  A
C1283      C1284   1.400       .  A
C1283      H1288   1.083       .  S
C1285      C1286   1.401       .  A
C1286      H1290   1.077       .  S
C1291      C1292   1.407       .  A
C1291      C1296   1.396       .  A
C1291      H1297   1.083       .  S
C1292      C1293   1.403       .  A
C1293      C1294   1.398       .  A
C1293      H1298   1.082       .  S
C1294      C1295   1.407       .  A
C1294      H1299   1.083       .  S
C1295      C1296   1.402       .  A
C1296      H1300   1.083       .  S
C1301      C1302   1.401       .  A
C1301      C1306   1.401       .  A
C1301      H1307   1.083       .  S
C1302      C1303   1.406       .  A
C1303      C1304   1.393       .  A
C1303      H1308   1.083       .  S
C1304      C1305   1.404       .  A
C1304      H1309   1.078       .  S
C1305      C1306   1.414       .  A
C1306      H1310   1.080       .  S
C1311      C1312   1.403       .  A
C1311      C1316   1.401       .  A
C1311      H1317   1.083       .  S
C1312      C1313   1.404       .  A
C1313      C1314   1.395       .  A
C1314      C1315   1.410       .  A
C1314      H1319   1.078       .  S
C1315      C1316   1.411       .  A
C1316      H1320   1.083       .  S
C1321      C1322   1.408       .  A
C1321      C1326   1.407       .  A
C1322      C1323   1.407       .  A
C1323      C1324   1.401       .  A
C1323      H1328   1.083       .  S
C1324      C1325   1.403       .  A
C1324      H1329   1.081       .  S
C1325      C1326   1.406       .  A
C1326      H1330   1.083   1_655  S
C1331      C1332   1.402       .  A
C1331      C1336   1.390       .  A
C1331      H1337   1.079       .  S
C1332      C1333   1.412       .  A
C1333      C1334   1.400       .  A
C1333      H1338   1.081       .  S
C1334      C1335   1.402       .  A
C1334      H1339   1.083       .  S
C1335      C1336   1.406       .  A
C1336      H1340   1.083       .  S
C1341      C1342   1.402       .  A
C1341      C1346   1.393       .  A
C1341      H1347   1.083       .  S
C1342      C1343   1.403       .  A
C1343      C1344   1.400       .  A
C1343      H1348   1.083       .  S
C1344      C1345   1.410       .  A
C1344      H1349   1.083       .  S
C1345      C1346   1.411       .  A
C1346      H1350   1.077       .  S
C1351      C1352   1.410       .  A
C1351      C1356   1.408       .  A
C1351      H1357   1.083       .  S
C1352      C1353   1.408       .  A
C1353      C1354   1.398       .  A
C1353      H1358   1.083       .  S
C1354      C1355   1.401       .  A
C1354      H1359   1.081       .  S
C1355      C1356   1.405       .  A
C1356      H1360   1.083       .  S
C1361      C1366   1.399   1_556  A
C1361      H1367   1.083       .  S
C1362      C1363   1.404       .  A
C1363      C1364   1.398   1_556  A
C1363      H1368   1.082       .  S
C1364      C1365   1.407       .  A
C1364      H1369   1.083       .  S
C1366      H1370   1.083       .  S
C1371      C1372   1.401       .  A
C1371      C1376   1.395       .  A
C1371      H1377   1.082       .  S
C1372      C1373   1.408       .  A
C1373      C1374   1.397       .  A
C1373      H1378   1.082       .  S
C1374      C1375   1.402       .  A
C1374      H1379   1.082       .  S
C1375      C1376   1.408       .  A
C1376      H1380   1.082       .  S
C1381      C1382   1.401       .  A
C1381      C1386   1.397       .  A
C1381      H1387   1.083       .  S
C1382      C1383   1.407       .  A
C1383      H1388   1.083       .  S
C1384      H1389   1.083       .  S
C1385      C1386   1.414       .  A
C1386      H1390   1.078       .  S
C1391      C1392   1.407       .  A
C1391      C1396   1.399       .  A
C1391      H1397   1.083       .  S
C1392      C1393   1.408       .  A
C1393      C1394   1.404       .  A
C1393      H1398   1.083       .  S
C1394      C1395   1.406       .  A
C1394      H1399   1.083       .  S
C1395      C1396   1.402       .  A
C1396      H1400   1.078       .  S
C1401      C1402   1.399       .  A
C1401      C1406   1.399       .  A
C1401      H1407   1.083       .  S
C1402      C1403   1.408       .  A
C1403      C1404   1.391       .  A
C1403      H1408   1.083       .  S
C1404      C1405   1.401       .  A
C1405      C1406   1.416       .  A
C1411      C1412   1.399       .  A
C1411      C1416   1.395       .  A
C1411      H1417   1.084       .  S
C1412      C1413   1.401       .  A
C1413      C1414   1.393       .  A
C1413      H1418   1.083       .  S
C1414      C1415   1.405       .  A
C1414      H1419   1.081       .  S
C1415      C1416   1.411       .  A
C1416      H1420   1.081       .  S
C1421      C1422   1.406       .  A
C1421      H1427   1.083       .  S
C1423      C1424   1.398       .  A
C1424      C1425   1.404       .  A
C1424      H1429   1.083       .  S
C1425      C1426   1.406       .  A
C1426      H1430   1.083       .  S
C1431      C1436   1.394   1_545  A
C1433      C1434   1.392   1_545  A
C1433      H1438   1.083       .  S
C1434      C1435   1.404       .  A
C1434      H1439   1.082       .  S
C1435      C1436   1.412       .  A
C1436      H1440   1.080       .  S
