geometry optimzed in LAMMPS
_audit_creation_date              2020-11-30 
_audit_creation_method            'lammps2cif' 
_symmetry_space_group_name_H-M    'P1' 
_symmetry_Int_Tables_number       1 
_symmetry_cell_setting            triclinic 
loop_ 
_symmetry_equiv_pos_as_xyz 
  x,y,z 
_cell_length_a                    27.0647148 
_cell_length_b                    27.06525302040627 
_cell_length_c                    64.35497218281549 
_cell_angle_alpha                 90.00910873249322 
_cell_angle_beta                  89.98938034659155 
_cell_angle_gamma                 120.1002077585643 
loop_ 
_atom_site_label 
_atom_site_type_symbol 
_atom_site_fract_x 
_atom_site_fract_y 
_atom_site_fract_z 
_atom_site_charge 
C1          C  0.09790641  0.52048445  0.53942342     0.06000
C2          C  0.14146120  0.51068747  0.54664746    -0.10100
C3          C  0.16193547  0.48256204  0.53389394     0.03500
C4          C  0.13919619  0.46431297  0.51412462    -0.08600
C5          C  0.09589396  0.47314725  0.50672925     0.06000
C6          C  0.07510284  0.50144885  0.51931474    -0.08100
H7          H  0.15902685  0.52452069  0.56208991     0.11600
H8          H  0.15483613  0.44213823  0.50447490     0.09200
H9          H  0.04149135  0.50846397  0.51355484     0.09000
C10         C  0.92968220  0.56699894  0.43686200     0.06000
C11         C  0.94961816  0.58524276  0.45731016    -0.10100
C12         C  0.92603806  0.61163391  0.46951522     0.03500
C13         C  0.88272752  0.61951195  0.46132996    -0.08600
C14         C  0.86272175  0.60194400  0.44115586     0.06000
C15         C  0.88616687  0.57574477  0.42885761    -0.08100
H16         H  0.98306876  0.57885210  0.46367428     0.11600
H17         H  0.86484639  0.64014072  0.47067694     0.09200
H18         H  0.87067965  0.56229547  0.41316207     0.09000
O19         O  0.03400191  0.71026408  0.61279032    -0.78900
C20         C  0.96984335  0.67658703  0.52837316     1.00500
O21         O  0.93775792  0.64962328  0.54345473    -0.68000
O22         O  0.99470675  0.61000739  0.56319728    -0.71600
Al23       Al  0.95725448  0.64956445  0.57230012     1.49000
C24         C  0.03901443  0.61316146  0.57090792     0.95700
O25         O  0.13249438  0.74608744  0.56660491    -0.77800
O26         O  0.04836822  0.82541794  0.57657968    -0.71400
Al27       Al  0.07974389  0.72672267  0.58848231     1.90100
O28         O  0.10940113  0.80098123  0.54888919    -0.70400
O29         O  0.95126162  0.75555539  0.55896489    -0.70300
O30         O  0.01311409  0.72496015  0.53112015    -0.76000
O31         O  0.91562374  0.68484715  0.58143771    -0.74200
O32         O  0.02261251  0.71641933  0.57194721    -1.10300
O33         O  0.95998148  0.63239207  0.60122664    -0.69500
C34         C  0.98653392  0.66614286  0.61597086     1.01200
C35         C  0.14491051  0.78546186  0.55372370     0.97600
Al36       Al  0.02958130  0.77171151  0.55509611     1.55600
O37         O  0.06650580  0.64917187  0.58516277    -0.74100
C38         C  0.91653800  0.72790715  0.57353135     1.01800
C39         C  0.08887930  0.84004578  0.58912128     0.96700
O40         O  0.10653044  0.80630692  0.59404806    -0.79400
C41         C  0.26166981  0.22647278  0.10298726     0.06000
C42         C  0.28046386  0.24366318  0.12362860    -0.10100
C43         C  0.25723093  0.27075823  0.13564537     0.03500
C44         C  0.21549623  0.28043671  0.12709165    -0.08600
C45         C  0.19653997  0.26389765  0.10677155     0.06000
C46         C  0.21958219  0.23696657  0.09463620    -0.08100
H47         H  0.31277190  0.23595427  0.13027791     0.11600
H48         H  0.19789756  0.30157451  0.13630665     0.09200
H49         H  0.20489647  0.22430641  0.07881659     0.09000
C50         C  0.42637580  0.18143683  0.20548246     0.06000
C51         C  0.47158323  0.17438266  0.21277958    -0.10100
C52         C  0.49519500  0.14947351  0.19990967     0.03500
C53         C  0.47396384  0.13167785  0.17994724    -0.08600
C54         C  0.42891454  0.13756319  0.17249240     0.06000
C55         C  0.40496735  0.16271812  0.18518619    -0.08100
H56         H  0.48797624  0.18778871  0.22838300     0.11600
H57         H  0.49195302  0.11179853  0.17023312     0.09200
H58         H  0.37000160  0.16748241  0.17938213     0.09000
O59         O  0.40880071  0.98913662  0.08378140    -0.78900
C60         C  0.32294879  0.13403589  0.07240341     1.00500
O61         O  0.36710614  0.13661752  0.08000409    -0.68000
O62         O  0.42188831  0.09507282  0.09977994    -0.71600
Al63       Al  0.40414295  0.09641251  0.07092428     1.49000
C64         C  0.38821723  0.06810453  0.11447611     0.95700
O65         O  0.25057634  0.94394958  0.09320203    -0.77800
O66         O  0.25459081  0.94138080  0.04807301    -0.71400
Al67       Al  0.33040690  0.97330410  0.08726922     1.90100
O68         O  0.22829046  0.00031695  0.07611945    -0.70400
O69         O  0.32778732  0.03815920  0.03012928    -0.70300
O70         O  0.29510641  0.09818685  0.05816284    -0.76000
O71         O  0.40280594  0.11449257  0.04211283    -0.74200
O72         O  0.33835575  0.02972892  0.07080364    -1.10300
O73         O  0.44612709  0.06111552  0.06190195    -0.69500
C74         C  0.44483524  0.01773060  0.06969032     1.01200
C75         C  0.21539563  0.96006032  0.08865247     0.97600
Al76       Al  0.28160782  0.02070345  0.05429997     1.55600
O77         O  0.34591271  0.01919859  0.11147514    -0.74100
C78         C  0.37607505  0.08142583  0.02724993     1.01800
C79         C  0.27171865  0.90694947  0.05258974     0.96700
O80         O  0.31179074  0.92039323  0.06530482    -0.79400
O81         O  0.35971460  0.36842559  0.27917727    -0.78900
C82         C  0.29750527  0.33449379  0.19474559     1.00500
O83         O  0.26461083  0.30789956  0.20970400    -0.68000
O84         O  0.31917712  0.26662689  0.22985219    -0.71600
Al85       Al  0.28300713  0.30762041  0.23868752     1.49000
C86         C  0.36298977  0.26902047  0.23767665     0.95700
O87         O  0.45831291  0.40005707  0.23320624    -0.77800
O88         O  0.37744387  0.48332517  0.24303137    -0.71400
Al89       Al  0.40570279  0.38277663  0.25506147     1.90100
O90         O  0.43782994  0.45706021  0.21557779    -0.70400
O91         O  0.28012932  0.41522587  0.22519028    -0.70300
O92         O  0.34102224  0.38262821  0.19759154    -0.76000
O93         O  0.24252612  0.34422403  0.24750690    -0.74200
O94         O  0.34927193  0.37369440  0.23839488    -1.10300
O95         O  0.28477827  0.29099337  0.26778515    -0.69500
C96         C  0.31127225  0.32557052  0.28235731     1.01200
C97         C  0.47227776  0.44018018  0.22049775     0.97600
Al98       Al  0.35796177  0.42951166  0.22152782     1.55600
O99         O  0.39007823  0.30429501  0.25217123    -0.74100
C100        C  0.24489467  0.38801226  0.23968688     1.01800
C101        C  0.41845382  0.49769337  0.25531495     0.96700
O102        O  0.43507181  0.46314552  0.26029172    -0.79400
C103        C  0.19489329  0.28761407  0.37300986     0.06000
C104        C  0.21519511  0.30946353  0.35285460    -0.10100
C105        C  0.24228436  0.28654007  0.34063238     0.03500
C106        C  0.24883463  0.24222384  0.34846784    -0.08600
C107        C  0.22937221  0.22029747  0.36824814     0.06000
C108        C  0.20243103  0.24288642  0.38063770    -0.08100
H109        H  0.20980366  0.34376160  0.34673479     0.11600
H110        H  0.26995161  0.22488023  0.33909289     0.09200
H111        H  0.18755171  0.22587848  0.39607480     0.09000
C112        C  0.15720022  0.45201341  0.27137470     0.06000
C113        C  0.13681746  0.43084492  0.29156658    -0.10100
C114        C  0.11208538  0.45602226  0.30384538     0.03500
C115        C  0.10820299  0.50194440  0.29606552    -0.08600
C116        C  0.12750867  0.52273805  0.27616312     0.06000
C117        C  0.15208326  0.49801161  0.26373900    -0.08100
H118        H  0.14003356  0.39519630  0.29761116     0.11600
H119        H  0.08851761  0.52081148  0.30542107     0.09200
H120        H  0.16659787  0.51407908  0.24817200     0.09000
O121        O  0.96148137  0.43874289  0.39173704    -0.78900
C122        C  0.10268862  0.34913216  0.40376566     1.00500
O123        O  0.10628865  0.39374624  0.39614952    -0.68000
O124        O  0.06654599  0.45005844  0.37622165    -0.71600
Al125      Al  0.06700692  0.43183573  0.40509385     1.49000
C126        C  0.03979201  0.41651979  0.36146371     0.95700
O127        O  0.91358375  0.27983703  0.38237638    -0.77800
O128        O  0.91007647  0.28437786  0.42760698    -0.71400
Al129      Al  0.94421770  0.35991065  0.38829547     1.90100
O130        O  0.96810150  0.25598714  0.39991516    -0.70400
O131        O  0.00698784  0.35622126  0.44578760    -0.70300
O132        O  0.06630405  0.32161617  0.41792837    -0.76000
O133        O  0.08450239  0.43008262  0.43395821    -0.74200
O134        O  0.99972576  0.36671322  0.40502321    -1.10300
O135        O  0.03241770  0.47444244  0.41406338    -0.69500
C136        C  0.98944767  0.47376673  0.40617807     1.01200
C137        C  0.92861992  0.24393125  0.38709853     0.97600
Al138      Al  0.98919459  0.30970317  0.42164247     1.55600
O139        O  0.99059595  0.37456472  0.36430907    -0.74100
C140        C  0.05073441  0.40411154  0.44873677     1.01800
C141        C  0.87656185  0.30241343  0.42277700     0.96700
O142        O  0.89105411  0.34244859  0.40998766    -0.79400
C143        C  0.54126066  0.96012733  0.03987705     0.06000
C144        C  0.55857174  0.97962745  0.01932903    -0.10100
C145        C  0.58568840  0.95684037  0.00712163     0.03500
C146        C  0.59539361  0.91482656  0.01541203    -0.08600
C147        C  0.57867627  0.89509457  0.03566309     0.06000
C148        C  0.55174371  0.91779220  0.04799164    -0.08100
H149        H  0.55064873  0.01196897  0.01284787     0.11600
H150        H  0.61635584  0.89739439  0.00601206     0.09200
H151        H  0.53874034  0.90238713  0.06372134     0.09000
C152        C  0.49152452  0.12714391  0.93661374     0.06000
C153        C  0.47176055  0.10441925  0.95666035    -0.10100
C154        C  0.44554723  0.12719015  0.96935507     0.03500
C155        C  0.43949025  0.17237366  0.96212557    -0.08600
C156        C  0.45838849  0.19490318  0.94236262     0.06000
C157        C  0.48452164  0.17251548  0.92953005    -0.08100
H158        H  0.47656449  0.06931637  0.96228243     0.11600
H159        H  0.41867534  0.18939760  0.97182433     0.09200
H160        H  0.49873496  0.18985191  0.91408120     0.09000
O161        O  0.67804590  0.05987224  0.86303926    -0.78900
C162        C  0.64658254  0.99894308  0.94770613     1.00500
O163        O  0.61943238  0.96621696  0.93278670    -0.68000
O164        O  0.57812849  0.02134726  0.91283343    -0.71600
Al165      Al  0.61834279  0.98453850  0.90384274     1.49000
C166        C  0.58036161  0.06487942  0.90479096     0.95700
O167        O  0.71179332  0.15992605  0.90859605    -0.77800
O168        O  0.79396238  0.07824865  0.89900727    -0.71400
Al169      Al  0.69352251  0.10660754  0.88698677     1.90100
O170        O  0.76836891  0.13923104  0.92642419    -0.70400
O171        O  0.72601649  0.98129303  0.91691332    -0.70300
O172        O  0.69438690  0.04271587  0.94468349    -0.76000
O173        O  0.65444696  0.94369180  0.89481375    -0.74200
O174        O  0.68458186  0.05057324  0.90384582    -1.10300
O175        O  0.60049917  0.98596768  0.87488642    -0.69500
C176        C  0.63454282  0.01175298  0.86011589     1.01200
C177        C  0.75168909  0.17376009  0.92137929     0.97600
Al178      Al  0.74063492  0.05928556  0.92058394     1.55600
O179        O  0.61535347  0.09155187  0.89017422    -0.74100
C180        C  0.69839307  0.94598075  0.90247208     1.01800
C181        C  0.80790321  0.11836105  0.88635874     0.96700
O182        O  0.77351042  0.13516815  0.88140398    -0.79400
C183        C  0.86779581  0.61844648  0.70618738     0.06000
C184        C  0.87279776  0.57173597  0.71324151    -0.10100
C185        C  0.89939899  0.54908172  0.70070110     0.03500
C186        C  0.92100082  0.57297864  0.68127542    -0.08600
C187        C  0.91689253  0.61934997  0.67404250     0.06000
C188        C  0.89020620  0.64223588  0.68646285    -0.08100
H189        H  0.85629220  0.55328714  0.72838685     0.11600
H190        H  0.94187706  0.55566920  0.67175937     0.09200
H191        H  0.88668856  0.67805348  0.68079924     0.09000
C192        C  0.82393408  0.78762594  0.60451508     0.06000
C193        C  0.80405491  0.76616635  0.62468984    -0.10100
C194        C  0.77694311  0.78909377  0.63682899     0.03500
C195        C  0.77005184  0.83318517  0.62889735    -0.08600
C196        C  0.78913705  0.85453049  0.60899963     0.06000
C197        C  0.81613765  0.83191551  0.59674043    -0.08100
H198        H  0.80957666  0.73198820  0.63085902     0.11600
H199        H  0.74869366  0.85042470  0.63818036     0.09200
H200        H  0.83060953  0.84838687  0.58121270     0.09000
C201        C  0.59409829  0.89059614  0.77051026     0.06000
C202        C  0.54820014  0.89597963  0.76275023    -0.10100
C203        C  0.52464799  0.92260168  0.77480915     0.03500
C204        C  0.54682795  0.94384406  0.79443849    -0.08600
C205        C  0.59238538  0.93945409  0.80236497     0.06000
C206        C  0.61619760  0.91271534  0.79045221    -0.08100
H207        H  0.53107735  0.87975577  0.74743352     0.11600
H208        H  0.52885106  0.96477884  0.80356943     0.09200
H209        H  0.65143219  0.90902052  0.79665023     0.09000
C210        C  0.76022056  0.85571016  0.87097592     0.06000
C211        C  0.73662279  0.83213661  0.85131977    -0.10100
C212        C  0.76046431  0.80564687  0.83926418     0.03500
C213        C  0.80739247  0.80310894  0.84674059    -0.08600
C214        C  0.83083446  0.82580796  0.86606076     0.06000
C215        C  0.80747263  0.85218326  0.87826232    -0.08100
H216        H  0.70020151  0.83433201  0.84550586     0.11600
H217        H  0.82527587  0.78216124  0.83755832     0.09200
H218        H  0.82555316  0.86930324  0.89339803     0.09000
O219        O  0.62815672  0.76257230  0.72584244    -0.78900
C220        C  0.77506836  0.67891287  0.73710946     1.00500
O221        O  0.77708473  0.72280275  0.72946729    -0.68000
O222        O  0.73494341  0.77765754  0.70990104    -0.71600
Al223      Al  0.73600520  0.75895509  0.73869541     1.49000
C224        C  0.70808497  0.74488270  0.69497222     0.95700
O225        O  0.58546942  0.60505224  0.71575089    -0.77800
O226        O  0.58125783  0.60703789  0.76056493    -0.71400
Al227      Al  0.61357493  0.68468013  0.72196558     1.90100
O228        O  0.64260523  0.58350865  0.73275160    -0.70400
O229        O  0.67658791  0.68146247  0.77910702    -0.70300
O230        O  0.73941332  0.65099890  0.75140323    -0.76000
O231        O  0.75340449  0.75673363  0.76756251    -0.74200
O232        O  0.66989243  0.69277691  0.73846271    -1.10300
O233        O  0.69959628  0.79978390  0.74793649    -0.69500
C234        C  0.65586403  0.79795602  0.74022924     1.01200
C235        C  0.60225853  0.57029308  0.72020442     0.97600
Al236      Al  0.66117265  0.63587609  0.75482105     1.55600
O237        O  0.65970364  0.70168039  0.69780659    -0.74100
C238        C  0.71913615  0.73016917  0.78217232     1.01800
C239        C  0.54679829  0.62411383  0.75605222     0.96700
O240        O  0.56065296  0.66510883  0.74379919    -0.79400
C241        C  0.28208252  0.45246761  0.77009370     0.06000
C242        C  0.27914949  0.43177428  0.79052202    -0.10100
C243        C  0.32868111  0.45473085  0.80300499     0.03500
C244        C  0.38039095  0.49789568  0.79516790    -0.08600
C245        C  0.38399976  0.51851251  0.77509335     0.06000
C246        C  0.33501827  0.49593624  0.76245207    -0.08100
H247        H  0.23882397  0.39831910  0.79663145     0.11600
H248        H  0.41853420  0.51523110  0.80474024     0.09200
H249        H  0.33810120  0.51197929  0.74678825     0.09000
C250        C  0.07286295  0.28741661  0.87201476     0.06000
C251        C  0.01991761  0.24411935  0.87971370    -0.10100
C252        C  0.97095317  0.22129999  0.86705722     0.03500
C253        C  0.97460658  0.24141423  0.84689636    -0.08600
C254        C  0.02627687  0.28458540  0.83903293     0.06000
C255        C  0.07579998  0.30773713  0.85152505    -0.08100
H256        H  0.01676896  0.22856277  0.89545926     0.11600
H257        H  0.93643923  0.22401380  0.83733488     0.09200
H258        H  0.11607727  0.34125945  0.84540885     0.09000
O259        O  0.12177074  0.41939168  0.72431941    -0.78900
C260        C  0.89248161  0.26736185  0.73592347     1.00500
O261        O  0.93478822  0.26689177  0.72796994    -0.68000
O262        O  0.03159515  0.31133917  0.70820190    -0.71600
Al263      Al  0.01182535  0.30939613  0.73703674     1.49000
C264        C  0.02444412  0.33757577  0.69337397     0.95700
O265        O  0.00345723  0.45739059  0.71451248    -0.77800
O266        O  0.01037352  0.46170747  0.75935403    -0.71400
Al267      Al  0.05692967  0.43164667  0.72052416     1.90100
O268        O  0.92559205  0.39871042  0.73173466    -0.70400
O269        O  0.99257903  0.36691305  0.77772020    -0.70300
O270        O  0.89952638  0.30247505  0.75030872    -0.76000
O271        O  0.99263688  0.29117880  0.76590771    -0.74200
O272        O  0.00994802  0.37456042  0.73703959    -1.10300
O273        O  0.08889496  0.34723241  0.74610802    -0.69500
C274        C  0.13014837  0.39173504  0.73852596     1.01200
C275        C  0.95178000  0.43948943  0.71923561     0.97600
Al276      Al  0.96106798  0.38141520  0.75362187     1.55600
O277        O  0.02844993  0.38535424  0.69632666    -0.74100
C278        C  0.99914721  0.32462476  0.78066644     1.01800
C279        C  0.06137552  0.49776943  0.75461653     0.96700
O280        O  0.08946707  0.48513919  0.74234220    -0.79400
O281        O  0.32677880  0.35457423  0.94586673    -0.78900
C282        C  0.35548005  0.41579821  0.86157569     1.00500
O283        O  0.36193534  0.44912735  0.87637198    -0.68000
O284        O  0.26588768  0.39375817  0.89627395    -0.71600
Al285      Al  0.34304359  0.43090209  0.90529197     1.49000
C286        C  0.22446387  0.34954472  0.90393401     0.95700
O287        O  0.26263979  0.25562451  0.89980308    -0.77800
O288        O  0.42659492  0.33906872  0.91022656    -0.71400
Al289      Al  0.29651407  0.30843435  0.92171096     1.90100
O290        O  0.34099730  0.27795037  0.88238525    -0.70400
O291        O  0.45492747  0.43588148  0.89222923    -0.70300
O292        O  0.36186895  0.37346128  0.86448215    -0.76000
O293        O  0.42011609  0.47254278  0.91429330    -0.74200
O294        O  0.34391094  0.36526684  0.90515881    -1.10300
O295        O  0.32401882  0.42903079  0.93427325    -0.69500
C296        C  0.33232671  0.40297602  0.94890713     1.01200
C297        C  0.28941276  0.24309750  0.88686691     0.97600
Al298      Al  0.39215697  0.35764074  0.88851538     1.55600
O299        O  0.23265696  0.32230591  0.91834278    -0.74100
C300        C  0.46216963  0.47105883  0.90662729     1.01800
C301        C  0.40028228  0.29877297  0.92283266     0.96700
O302        O  0.34861061  0.28097748  0.92744394    -0.79400
C303        C  0.40999782  0.52084206  0.03940658     0.06000
C304        C  0.35765302  0.51408240  0.04653429    -0.10100
C305        C  0.30887212  0.48790632  0.03376708     0.03500
C306        C  0.31204153  0.46842741  0.01409350    -0.08600
C307        C  0.36297576  0.47407667  0.00674759     0.06000
C308        C  0.41240199  0.50048655  0.01934566    -0.08100
H309        H  0.35483654  0.52883119  0.06191580     0.11600
H310        H  0.27398633  0.44772287  0.00446398     0.09200
H311        H  0.45218087  0.50515384  0.01362552     0.09000
C312        C  0.61439971  0.56390037  0.93789513     0.06000
C313        C  0.61236419  0.58067751  0.95856175    -0.10100
C314        C  0.66269029  0.60800855  0.97060984     0.03500
C315        C  0.71429283  0.61816217  0.96210345    -0.08600
C316        C  0.71693602  0.60201457  0.94178161     0.06000
C317        C  0.66715192  0.57493887  0.92958789    -0.08100
H318        H  0.57215225  0.57260167  0.96516972     0.11600
H319        H  0.75304724  0.63953244  0.97133642     0.09200
H320        H  0.66947479  0.56266572  0.91373731     0.09000
O321        O  0.57025446  0.64709108  0.08580602    -0.78900
C322        C  0.79922856  0.72338838  0.07371105     1.00500
O323        O  0.75705600  0.68081348  0.08189354    -0.68000
O324        O  0.66055047  0.62860763  0.10194524    -0.71600
Al325      Al  0.67974660  0.64611967  0.07302358     1.49000
C326        C  0.66770103  0.66196190  0.11679973     0.95700
O327        O  0.69039998  0.80349396  0.09545579    -0.77800
O328        O  0.68208410  0.80037604  0.05059783    -0.71400
Al329      Al  0.63583912  0.72414221  0.08960422     1.90100
O330        O  0.76733786  0.82144780  0.07785974    -0.70400
O331        O  0.69807260  0.72235572  0.03224505    -0.70300
O332        O  0.79183898  0.75073235  0.05915644    -0.76000
O333        O  0.69816504  0.64662093  0.04404400    -0.74200
O334        O  0.68206164  0.71336005  0.07296097    -1.10300
O335        O  0.60247061  0.60693415  0.06415661    -0.69500
C336        C  0.56150256  0.61081539  0.07161131     1.01200
C337        C  0.74200553  0.83680132  0.09039883     0.97600
Al338      Al  0.73076581  0.76868420  0.05615653     1.55600
O339        O  0.66414501  0.70597350  0.11381237    -0.74100
C340        C  0.69130764  0.67341319  0.02931136     1.01800
C341        C  0.63130618  0.78585940  0.05544736     0.96700
O342        O  0.60332045  0.74553650  0.06791361    -0.79400
C343        C  0.73993191  0.17327096  0.70522471     0.06000
C344        C  0.74257126  0.15620746  0.68468775    -0.10100
C345        C  0.69287526  0.12972827  0.67233950     0.03500
C346        C  0.64121031  0.12061087  0.68039641    -0.08600
C347        C  0.63794285  0.13720699  0.70058279     0.06000
C348        C  0.68714808  0.16341391  0.71312194    -0.08100
H349        H  0.78285575  0.16361950  0.67837364     0.11600
H350        H  0.60295905  0.10002209  0.67087233     0.09200
H351        H  0.68442487  0.17619913  0.72885254     0.09000
C352        C  0.95142996  0.22071138  0.60296316     0.06000
C353        C  0.94957668  0.24082996  0.62307413    -0.10100
C354        C  0.99937379  0.26756876  0.63540387     0.03500
C355        C  0.05032840  0.27375909  0.62773909    -0.08600
C356        C  0.05289773  0.25447591  0.60792292     0.06000
C357        C  0.00356500  0.22788044  0.59546062    -0.08100
H358        H  0.90989300  0.23591107  0.62902519     0.11600
H359        H  0.08876041  0.29491961  0.63714843     0.09200
H360        H  0.00586475  0.21340132  0.57997014     0.09000
C361        C  0.40854541  0.95859455  0.53818520     0.06000
C362        C  0.35621442  0.91433970  0.54594105    -0.10100
C363        C  0.30649645  0.89218094  0.53371041     0.03500
C364        C  0.30883370  0.91404617  0.51393164    -0.08600
C365        C  0.35997052  0.95802564  0.50601531     0.06000
C366        C  0.41018447  0.98049482  0.51808063    -0.08100
H367        H  0.35416794  0.89737307  0.56137758     0.11600
H368        H  0.27016661  0.89704790  0.50466837     0.09200
H369        H  0.45006480  0.01450641  0.51189016     0.09000
C370        C  0.61448806  0.12471392  0.43699240     0.06000
C371        C  0.66572371  0.17195782  0.42987373    -0.10100
C372        C  0.71529205  0.19503337  0.44222715     0.03500
C373        C  0.71388468  0.17120873  0.46155132    -0.08600
C374        C  0.66393473  0.12423221  0.46885458     0.06000
C375        C  0.61388121  0.10077824  0.45662174    -0.08100
H376        H  0.66713395  0.19034197  0.41476607     0.11600
H377        H  0.75248789  0.18885401  0.47087544     0.09200
H378        H  0.57492051  0.06438620  0.46231005     0.09000
O379        O  0.66148617  0.01756668  0.61048622    -0.78900
C380        C  0.69288576  0.07898776  0.52618777     1.00500
O381        O  0.70047226  0.11259460  0.54101342    -0.68000
O382        O  0.60378874  0.05952288  0.56084457    -0.71600
Al383      Al  0.68088717  0.09464443  0.56989087     1.49000
C384        C  0.56156108  0.01617433  0.56862079     0.95700
O385        O  0.59634178  0.91910976  0.56457071    -0.77800
O386        O  0.76009407  0.99863372  0.57502000    -0.71400
Al387      Al  0.63102278  0.97179184  0.58638669     1.90100
O388        O  0.67416107  0.93921825  0.54721060    -0.70400
O389        O  0.79104004  0.09604253  0.55688419    -0.70300
O390        O  0.69750112  0.03555502  0.52908464    -0.76000
O391        O  0.75800281  0.13429746  0.57900252    -0.74200
O392        O  0.67955303  0.02791888  0.56982991    -1.10300
O393        O  0.66163408  0.09343202  0.59876124    -0.69500
C394        C  0.66768607  0.06619676  0.61350056     1.01200
C395        C  0.62243566  0.90535390  0.55179800     0.97600
Al396      Al  0.72682836  0.01855276  0.55322463     1.55600
O397        O  0.56869166  0.98779973  0.58286060    -0.74100
C398        C  0.79931741  0.13142312  0.57132905     1.01800
C399        C  0.73300329  0.95896084  0.58780668     0.96700
O400        O  0.68157836  0.94258367  0.59235796    -0.79400
O401        O  0.45346184  0.08984309  0.39122876    -0.78900
C402        C  0.22387228  0.94122390  0.40326317     1.00500
O403        O  0.26575455  0.93973776  0.39537988    -0.68000
O404        O  0.36265616  0.98232346  0.37561028    -0.71600
Al405      Al  0.34294876  0.98144481  0.40444709     1.49000
C406        C  0.35600751  0.00843710  0.36060470     0.95700
O407        O  0.33639305  0.12999582  0.38136112    -0.77800
O408        O  0.34441414  0.13574065  0.42600668    -0.71400
Al409      Al  0.38925545  0.10319400  0.38737465     1.90100
O410        O  0.25865800  0.07210375  0.39880242    -0.70400
O411        O  0.32562803  0.04124313  0.44484353    -0.70300
O412        O  0.23162556  0.97645496  0.41771394    -0.76000
O413        O  0.32362628  0.96420544  0.43337968    -0.74200
O414        O  0.34208696  0.04704251  0.40414374    -1.10300
O415        O  0.42012795  0.01881825  0.41353453    -0.69500
C416        C  0.46163279  0.06276187  0.40573157     1.01200
C417        C  0.28492938  0.11275039  0.38629913     0.97600
Al418      Al  0.29403490  0.05526784  0.42070435     1.55600
O419        O  0.35991354  0.05624715  0.36337145    -0.74100
C420        C  0.33125513  0.99848257  0.44797600     1.01800
C421        C  0.39558119  0.17085302  0.42108616     0.96700
O422        O  0.42286592  0.15699425  0.40892876    -0.79400
C423        C  0.07158885  0.84932144  0.37194067     0.06000
C424        C  0.01992696  0.84483545  0.37873331    -0.10100
C425        C  0.97097507  0.81834528  0.36604709     0.03500
C426        C  0.97347142  0.79639114  0.34675036    -0.08600
C427        C  0.02393087  0.79999766  0.33979042     0.06000
C428        C  0.07331103  0.82661776  0.35233051    -0.08100
H429        H  0.01774378  0.86150974  0.39381176     0.11600
H430        H  0.93538886  0.77545506  0.33715209     0.09200
H431        H  0.11265318  0.82969539  0.34688533     0.09000
C432        C  0.28320384  0.89254449  0.27010593     0.06000
C433        C  0.33521456  0.90025403  0.26220384    -0.10100
C434        C  0.38515762  0.92720752  0.27436420     0.03500
C435        C  0.38328441  0.94652131  0.29427539    -0.08600
C436        C  0.33241107  0.93975894  0.30233675     0.06000
C437        C  0.28210105  0.91261671  0.29029321    -0.08100
H438        H  0.33684492  0.88550453  0.24669111     0.11600
H439        H  0.42205072  0.96775454  0.30349846     0.09200
H440        H  0.24247989  0.90707842  0.29657571     0.09000
C441        C  0.95251372  0.78425615  0.10412494     0.06000
C442        C  0.00462796  0.82902735  0.09643592    -0.10100
C443        C  0.05411756  0.85228344  0.10884033     0.03500
C444        C  0.05166616  0.83099011  0.12875865    -0.08600
C445        C  0.00062231  0.78653390  0.13658789     0.06000
C446        C  0.95078240  0.76302599  0.12432653    -0.08100
H447        H  0.00670471  0.84548441  0.08090627     0.11600
H448        H  0.09010439  0.84871978  0.13817242     0.09200
H449        H  0.91104113  0.72861057  0.13044755     0.09000
C450        C  0.73764008  0.61290749  0.20704789     0.06000
C451        C  0.74001027  0.63630722  0.18716133    -0.10100
C452        C  0.69031366  0.61494747  0.17483921     0.03500
C453        C  0.63879272  0.57043800  0.18231671    -0.08600
C454        C  0.63554986  0.54692459  0.20187813     0.06000
C455        C  0.68488532  0.56805270  0.21434312    -0.08100
H456        H  0.78014555  0.67077082  0.18133078     0.11600
H457        H  0.60052199  0.55431498  0.17287661     0.09200
H458        H  0.68219208  0.54993749  0.22960879     0.09000
O459        O  0.99471805  0.67998888  0.27924256    -0.78900
C460        C  0.02389498  0.74265565  0.19489337     1.00500
O461        O  0.02909337  0.77497720  0.20986975    -0.68000
O462        O  0.93248868  0.71776120  0.22970876    -0.71600
Al463      Al  0.00995069  0.75595042  0.23868464     1.49000
C464        C  0.89145143  0.67338358  0.23752310     0.95700
O465        O  0.93200794  0.58060876  0.23325655    -0.77800
O466        O  0.09576538  0.66620526  0.24313886    -0.71400
Al467      Al  0.96530485  0.63378617  0.25505877     1.90100
O468        O  0.01011178  0.60434886  0.21545417    -0.70400
O469        O  0.12253670  0.76283802  0.22535238    -0.70300
O470        O  0.02980615  0.69997562  0.19766357    -0.76000
O471        O  0.08723512  0.79845743  0.24768316    -0.74200
O472        O  0.01190031  0.69091214  0.23843585    -1.10300
O473        O  0.99041525  0.75353641  0.26757721    -0.69500
C474        C  0.99841514  0.72758331  0.28229960     1.01200
C475        C  0.95895030  0.56868103  0.22019769     0.97600
Al476      Al  0.06048243  0.68425261  0.22161882     1.55600
O477        O  0.90044869  0.64617374  0.25173005    -0.74100
C478        C  0.12958264  0.79789007  0.23977490     1.01800
C479        C  0.07023079  0.62618176  0.25589639     0.96700
O480        O  0.01862307  0.60790642  0.26073533    -0.79400
C481        C  0.14784733  0.76219075  0.76749979     0.06000
C482        C  0.12860040  0.76507043  0.78763507    -0.10100
C483        C  0.10116988  0.71570717  0.80012440     0.03500
C484        C  0.09316776  0.66392052  0.79256228    -0.08600
C485        C  0.11193288  0.66029179  0.77275063     0.06000
C486        C  0.13914021  0.70931870  0.76010221    -0.08100
H487        H  0.13523804  0.80542794  0.79357718     0.11600
H488        H  0.07194485  0.62593784  0.80219559     0.09200
H489        H  0.15365990  0.70641110  0.74468971     0.09000
C490        C  0.19861930  0.98127962  0.87021372     0.06000
C491        C  0.21845740  0.97930487  0.85008617    -0.10100
C492        C  0.24500527  0.02898100  0.83771110     0.03500
C493        C  0.25129264  0.08003720  0.84536796    -0.08600
C494        C  0.23232302  0.08268204  0.86525754     0.06000
C495        C  0.20588971  0.03339529  0.87772925    -0.08100
H496        H  0.21345138  0.93957382  0.84414669     0.11600
H497        H  0.27233173  0.11841490  0.83593269     0.09200
H498        H  0.19159994  0.03572030  0.89325216     0.09000
O499        O  0.39656461  0.14558676  0.74842789    -0.78900
C500        C  0.24473152  0.91528516  0.73723697     1.00500
O501        O  0.24409272  0.95765782  0.74507139    -0.68000
O502        O  0.28764158  0.05505149  0.76456360    -0.71600
Al503      Al  0.28673280  0.03475878  0.73586033     1.49000
C504        C  0.31418963  0.04967400  0.77968537     0.95700
O505        O  0.43415508  0.02732841  0.75949906    -0.77800
O506        O  0.43989347  0.03302921  0.71470399    -0.71400
Al507      Al  0.40866776  0.08081203  0.75288026     1.90100
O508        O  0.37597754  0.94898807  0.74236852    -0.70400
O509        O  0.34614721  0.01543693  0.69574584    -0.70300
O510        O  0.28043835  0.92240255  0.72307962    -0.76000
O511        O  0.26974756  0.01515746  0.70697157    -0.74200
O512        O  0.35201492  0.03318598  0.73634628    -1.10300
O513        O  0.32445022  0.11180472  0.72660731    -0.69500
C514        C  0.36871227  0.15345725  0.73415538     1.01200
C515        C  0.41642956  0.97552173  0.75497199     0.97600
Al516      Al  0.35951309  0.98400934  0.72010929     1.55600
O517        O  0.36202899  0.05358052  0.77702445    -0.74100
C518        C  0.30420832  0.02237669  0.69249644     1.01800
C519        C  0.47556572  0.08424748  0.71924998     0.96700
O520        O  0.46251832  0.11258143  0.73120686    -0.79400
C521        C  0.75875672  0.98005679  0.37032139     0.06000
C522        C  0.73962213  0.97731205  0.34968873    -0.10100
C523        C  0.76277595  0.02703165  0.33733690     0.03500
C524        C  0.80480304  0.07898363  0.34554853    -0.08600
C525        C  0.82393448  0.08242875  0.36590151     0.06000
C526        C  0.80098934  0.03305682  0.37835763    -0.08100
H527        H  0.70709119  0.93688700  0.34330790     0.11600
H528        H  0.82231104  0.11730546  0.33608051     0.09200
H529        H  0.81582632  0.03588553  0.39419715     0.09000
C530        C  0.59066314  0.76374948  0.26722347     0.06000
C531        C  0.54686007  0.71040769  0.25996887    -0.10100
C532        C  0.52523610  0.66187901  0.27285071     0.03500
C533        C  0.54719565  0.66639613  0.29276264    -0.08600
C534        C  0.59072592  0.71849251  0.30019944     0.06000
C535        C  0.61258118  0.76752177  0.28749221    -0.08100
H536        H  0.52988962  0.70665412  0.24442509     0.20600
H537        H  0.53069433  0.62864109  0.30251046     0.09200
H538        H  0.64632980  0.80812801  0.29328913     0.09000
C539        C  0.09515338  0.64488133  0.03608307     0.06000
C540        C  0.07289771  0.64447522  0.01614808    -0.10100
C541        C  0.09653602  0.69490917  0.00414343     0.03500
C542        C  0.14215990  0.74517451  0.01198635    -0.08600
C543        C  0.16442530  0.74641168  0.03163791     0.06000
C544        C  0.14104259  0.69634373  0.04374514    -0.08100
H545        H  0.03756881  0.60533826  0.01004908     0.11600
H546        H  0.15996106  0.78405571  0.00282213     0.09200
H547        H  0.15818135  0.69751824  0.05907902     0.09000
C548        C  0.92511186  0.43857477  0.93477522     0.06000
C549        C  0.87959381  0.38618202  0.92756401    -0.10100
C550        C  0.85852671  0.33670326  0.93990831     0.03500
C551        C  0.88265216  0.33934425  0.95926849    -0.08600
C552        C  0.92790579  0.39039576  0.96667424     0.06000
C553        C  0.94933630  0.44039697  0.95447621    -0.08100
H554        H  0.86093021  0.38386383  0.91243593     0.11600
H555        H  0.86647549  0.30085375  0.96859273     0.09200
H556        H  0.98437669  0.48023790  0.96024421     0.09000
C557        C  0.82741811  0.10085983  0.10098301     0.06000
C558        C  0.80470513  0.10277934  0.12062454    -0.10100
C559        C  0.77821764  0.05351376  0.13330314     0.03500
C560        C  0.77480332  0.00310890  0.12644634    -0.08600
C561        C  0.79653373  0.00026577  0.10716766     0.06000
C562        C  0.82284270  0.04898788  0.09432984    -0.08100
H563        H  0.80768741  0.14214250  0.12598131     0.11600
H564        H  0.75404889  0.96517682  0.13613462     0.09200
H565        H  0.83933861  0.04647703  0.07925652     0.09000
C566        C  0.86626125  0.30613173  0.20220651     0.06000
C567        C  0.88506379  0.30499185  0.18178589    -0.10100
C568        C  0.91191418  0.35546274  0.16979975     0.03500
C569        C  0.91959480  0.40638219  0.17814094    -0.08600
C570        C  0.90166774  0.40822897  0.19827362     0.06000
C571        C  0.87493435  0.35821579  0.21036742    -0.08100
H572        H  0.87895814  0.26533635  0.17532048     0.11600
H573        H  0.94075748  0.44529698  0.16899149     0.09200
H574        H  0.86134134  0.35990588  0.22607216     0.09000
O575        O  0.06038783  0.48365090  0.08142601    -0.78900
C576        C  0.91808388  0.25307550  0.06906173     1.00500
O577        O  0.91471042  0.29424141  0.07664703    -0.68000
O578        O  0.95459819  0.39042242  0.09662683    -0.71600
Al579      Al  0.95465611  0.37169471  0.06772441     1.49000
C580        C  0.98092832  0.38375547  0.11155741     0.95700
O581        O  0.10644015  0.37114604  0.09092207    -0.77800
O582        O  0.11165066  0.37997314  0.04595901    -0.71400
Al583      Al  0.07667889  0.42141269  0.08497764     1.90100
O584        O  0.05150511  0.29300945  0.07321933    -0.70400
O585        O  0.01561378  0.35664250  0.02721810    -0.70300
O586        O  0.95414633  0.26181205  0.05478110    -0.76000
O587        O  0.93779158  0.35261384  0.03876204    -0.74200
O588        O  0.02147860  0.37320646  0.06805492    -1.10300
O589        O  0.99024198  0.44909052  0.05877211    -0.69500
C590        C  0.03330650  0.49117600  0.06677709     1.01200
C591        C  0.09117581  0.32016612  0.08601787     0.97600
Al592      Al  0.03188456  0.32666437  0.05143030     1.55600
O593        O  0.02966111  0.38983636  0.10883200    -0.74100
C594        C  0.97219613  0.36118663  0.02412135     1.01800
C595        C  0.14533649  0.43139255  0.05106130     0.96700
O596        O  0.13027607  0.45708573  0.06351273    -0.79400
O597        O  0.65669220  0.01905112  0.19399783    -0.78900
C598        C  0.72068876  0.04777980  0.27828982     1.00500
O599        O  0.75275479  0.05290833  0.26321570    -0.68000
O600        O  0.69592352  0.95669789  0.24325177    -0.71600
Al601      Al  0.73341051  0.03402404  0.23433652     1.49000
C602        C  0.65154682  0.91555339  0.23552503     0.95700
O603        O  0.55802195  0.95442614  0.24023876    -0.77800
O604        O  0.64206288  0.11840945  0.23031022    -0.71400
Al605      Al  0.61076045  0.98850714  0.21826864     1.90100
O606        O  0.58138695  0.03251134  0.25802197    -0.70400
O607        O  0.73935630  0.14612310  0.24776733    -0.70300
O608        O  0.67775845  0.05332266  0.27559211    -0.76000
O609        O  0.77523677  0.11120935  0.22539206    -0.74200
O610        O  0.66800802  0.03534045  0.23481017    -1.10300
O611        O  0.73068913  0.01500365  0.20531238    -0.69500
C612        C  0.70469896  0.02375431  0.19077237     1.01200
C613        C  0.54581885  0.98131404  0.25325711     0.97600
Al614      Al  0.66110983  0.08355124  0.25171057     1.55600
O615        O  0.62428288  0.92427801  0.22126168    -0.74100
C616        C  0.77417899  0.15333041  0.23323303     1.01800
C617        C  0.60108580  0.09234078  0.21796168     0.96700
O618        O  0.58340961  0.04092616  0.21299025    -0.79400
O619        O  0.98988355  0.69390223  0.86203239    -0.78900
C620        C  0.05219469  0.72280493  0.94643309     1.00500
O621        O  0.08507228  0.72927348  0.93147219    -0.68000
O622        O  0.02830508  0.63285915  0.91158179    -0.71600
Al623      Al  0.06610822  0.71009769  0.90260025     1.49000
C624        C  0.98368974  0.59168679  0.90398345     0.95700
O625        O  0.89047420  0.63265512  0.90794902    -0.77800
O626        O  0.97690794  0.79632488  0.89827626    -0.71400
Al627      Al  0.94388794  0.66546254  0.88625773     1.90100
O628        O  0.91432007  0.71074581  0.92571144    -0.70400
O629        O  0.07314150  0.82212209  0.91629382    -0.70300
O630        O  0.00943362  0.72868551  0.94369773    -0.76000
O631        O  0.10811066  0.78719241  0.89354995    -0.74200
O632        O  0.00099878  0.71194253  0.90286611    -1.10300
O633        O  0.06381282  0.69036990  0.87370801    -0.69500
C634        C  0.03715654  0.69700796  0.85890774     1.01200
C635        C  0.87839331  0.65985419  0.92081071     0.97600
Al636      Al  0.99438135  0.76041235  0.91978399     1.55600
O637        O  0.95582303  0.60031413  0.88991136    -0.74100
C638        C  0.10751170  0.82934689  0.90159639     1.01800
C639        C  0.93700309  0.77104155  0.88543060     0.96700
O640        O  0.91880061  0.71949400  0.88043107    -0.79400
C641        C  0.48690058  0.43627391  0.43438261     0.06000
C642        C  0.47744627  0.38351754  0.42656287    -0.10100
C643        C  0.45022382  0.33407581  0.43897604     0.03500
C644        C  0.43224323  0.33703545  0.45895791    -0.08600
C645        C  0.44087139  0.38852642  0.46698968     0.06000
C646        C  0.46831158  0.43850856  0.45475142    -0.08100
H647        H  0.49127686  0.38098713  0.41098540     0.11600
H648        H  0.41096570  0.29860180  0.46836930     0.09200
H649        H  0.47536948  0.47869497  0.46103018     0.09000
C650        C  0.52927897  0.64263632  0.53608966     0.06000
C651        C  0.53682993  0.69485605  0.54360851    -0.10100
C652        C  0.56340763  0.74408496  0.53113199     0.03500
C653        C  0.58233365  0.74141291  0.51127961    -0.08600
C654        C  0.57584076  0.69038596  0.50358576     0.06000
C655        C  0.54906287  0.64057683  0.51592577    -0.08100
H656        H  0.52266429  0.69730859  0.55913938     0.11600
H657        H  0.60353230  0.77985479  0.50187302     0.09200
H658        H  0.54391029  0.60081377  0.50996262     0.09000
O659        O  0.61769719  0.59734580  0.38948692    -0.78900
C660        C  0.69860909  0.82733114  0.40117817     1.00500
O661        O  0.65530662  0.78538080  0.39326211    -0.68000
O662        O  0.60154983  0.68890521  0.37338724    -0.71600
Al663      Al  0.61950302  0.70815851  0.40224383     1.49000
C664        C  0.63477577  0.69554178  0.35855453     0.95700
O665        O  0.77475627  0.71447212  0.37963807    -0.77800
O666        O  0.77168470  0.70701460  0.42473290    -0.71400
Al667      Al  0.69532305  0.66162327  0.38567945     1.90100
O668        O  0.79514394  0.79226839  0.39710197    -0.70400
O669        O  0.69583600  0.72609154  0.44295879    -0.70300
O670        O  0.72624215  0.81972764  0.41557453    -0.76000
O671        O  0.62066250  0.72713844  0.43112972    -0.74200
O672        O  0.68604357  0.70897070  0.40225741    -1.10300
O673        O  0.57895881  0.63090563  0.41119742    -0.69500
C674        C  0.58147973  0.58931859  0.40359347     1.01200
C675        C  0.80904661  0.76598926  0.38443547     0.97600
Al676      Al  0.74213930  0.75727930  0.41890575     1.55600
O677        O  0.67801497  0.69062343  0.36150177    -0.74100
C678        C  0.64709821  0.71985634  0.44586398     1.01800
C679        C  0.75587216  0.65581031  0.42008682     0.96700
O680        O  0.71579878  0.62843851  0.40744797    -0.79400
C681        C  0.42856056  0.30707387  0.70349139     0.06000
C682        C  0.40734401  0.30631664  0.68330763    -0.10100
C683        C  0.43041738  0.35699965  0.67143291     0.03500
C684        C  0.47428770  0.40777236  0.67966833    -0.08600
C685        C  0.49550930  0.40927969  0.69952156     0.06000
C686        C  0.47272658  0.35907800  0.71151498    -0.08100
H687        H  0.37341351  0.26673259  0.67690087     0.11600
H688        H  0.49177132  0.44678088  0.67058639     0.09200
H689        H  0.48919250  0.36049744  0.72699441     0.09000
C690        C  0.26618041  0.10267536  0.60245534     0.06000
C691        C  0.28887058  0.10413587  0.62241603    -0.10100
C692        C  0.26486494  0.05441614  0.63482636     0.03500
C693        C  0.21863692  0.00414307  0.62740932    -0.08600
C694        C  0.19616467  0.00201055  0.60777827     0.06000
C695        C  0.21975712  0.05110076  0.59520359    -0.08100
H696        H  0.32466448  0.14340837  0.62820504     0.11600
H697        H  0.20054387  0.96580468  0.63689857     0.09200
H698        H  0.20233304  0.04909679  0.57985434     0.09000
O699        O  0.32674872  0.35423607  0.52887522    -0.78900
C700        C  0.38879569  0.38474508  0.61318901     1.00500
O701        O  0.42236958  0.39252173  0.59831202    -0.68000
O702        O  0.36950105  0.29619399  0.57837626    -0.71600
Al703      Al  0.40421344  0.37312900  0.56936648     1.49000
C704        C  0.32609087  0.25394582  0.57067756     0.95700
O705        O  0.22880941  0.28743169  0.57493206    -0.77800
O706        O  0.30763039  0.45149494  0.56470088    -0.71400
Al707      Al  0.28115361  0.32287790  0.55304150     1.90100
O708        O  0.24833385  0.36501301  0.59234736    -0.70400
O709        O  0.40514447  0.48276787  0.58263142    -0.70300
O710        O  0.34507376  0.38885531  0.61033358    -0.76000
O711        O  0.44337735  0.45012892  0.56033301    -0.74200
O712        O  0.33730165  0.37138632  0.56958864    -1.10300
O713        O  0.40275020  0.35422580  0.54036955    -0.69500
C714        C  0.37549634  0.36076318  0.52572635     1.01200
C715        C  0.21465089  0.31325562  0.58768741     0.97600
Al716      Al  0.32775142  0.41820745  0.58632947     1.55600
O717        O  0.29796164  0.26094115  0.55629163    -0.74100
C718        C  0.44036377  0.49124606  0.56808846     1.01800
C719        C  0.26713957  0.42428116  0.55225692     0.96700
O720        O  0.25095923  0.37300378  0.54747683    -0.79400
C721        C  0.30666913  0.19777796  0.57958762    -0.10400
C722        C  0.28929957  0.15390768  0.58956638    -0.11900
C723        C  0.40016276  0.37037744  0.63359064    -0.10400
C724        C  0.41059045  0.35951556  0.65075461    -0.11900
C725        C  0.59878562  0.69218684  0.48312402    -0.10400
C726        C  0.62095822  0.70376961  0.46613101    -0.11900
C727        C  0.47529340  0.54772013  0.55911205    -0.10400
C728        C  0.50103972  0.59155177  0.54904839    -0.11900
C729        C  0.51699487  0.48804047  0.42177011    -0.10400
C730        C  0.54453116  0.53255936  0.41217556    -0.11900
C731        C  0.40045433  0.37623778  0.50523744    -0.10400
C732        C  0.42060225  0.38728258  0.48790360    -0.11900
C733        C  0.95486455  0.36870180  0.13188140    -0.10400
C734        C  0.93355879  0.35775855  0.14903476    -0.11900
C735        C  0.81082666  0.20972911  0.22440632    -0.10400
C736        C  0.83744634  0.25412507  0.21469929    -0.11900
C737        C  0.85620171  0.15199578  0.08787609    -0.10400
C738        C  0.88251603  0.19619698  0.07792785    -0.11900
C739        C  0.75333933  0.05165248  0.15345104    -0.10400
C740        C  0.73060672  0.03987879  0.17039152    -0.11900
C741        C  0.95063926  0.38854362  0.98686862    -0.10400
C742        C  0.96190072  0.37697793  0.00377837    -0.11900
C743        C  0.94614623  0.49025665  0.92213406    -0.10400
C744        C  0.96309882  0.53474622  0.91252035    -0.11900
C745        C  0.07174381  0.59263897  0.04851904    -0.10400
C746        C  0.05352437  0.54788383  0.05806751    -0.11900
C747        C  0.06362959  0.70826993  0.96678289    -0.10400
C748        C  0.07516344  0.69760302  0.98378463    -0.11900
C749        C  0.62328008  0.70926251  0.33808333    -0.10400
C750        C  0.61193630  0.71878013  0.32086946    -0.11900
C751        C  0.61242870  0.81451516  0.25406965    -0.10400
C752        C  0.63027340  0.85869495  0.24420069    -0.11900
C753        C  0.73615506  0.92851853  0.38303225    -0.10400
C754        C  0.71844383  0.88398529  0.39262336    -0.11900
C755        C  0.74409549  0.02713326  0.31627132    -0.10400
C756        C  0.73318198  0.03548277  0.29882196    -0.11900
C757        C  0.38894033  0.21010826  0.72538391    -0.10400
C758        C  0.40621929  0.25470490  0.71580765    -0.11900
C759        C  0.29574279  0.03938989  0.67216486    -0.10400
C760        C  0.28610061  0.05190240  0.65518499    -0.11900
C761        C  0.28912269  0.03839319  0.80016391    -0.10400
C762        C  0.26772941  0.02999712  0.81726288    -0.11900
C763        C  0.14400370  0.88574720  0.89282244    -0.10400
C764        C  0.17029774  0.92998560  0.88303873    -0.11900
C765        C  0.17824620  0.81374969  0.75485111    -0.10400
C766        C  0.20639930  0.85858846  0.74553747    -0.11900
C767        C  0.08066258  0.71606077  0.82085353    -0.10400
C768        C  0.06104615  0.70832341  0.83823651    -0.11900
C769        C  0.91480624  0.46308716  0.20643009    -0.10400
C770        C  0.93251893  0.51166609  0.21203583    -0.11900
C771        C  0.83422284  0.65216643  0.22914309    -0.10400
C772        C  0.78931829  0.63433311  0.21972022    -0.11900
C773        C  0.01091239  0.75462300  0.17443512    -0.10400
C774        C  0.00174232  0.76606511  0.15721722    -0.11900
C775        C  0.43989361  0.93865151  0.26654893    -0.10400
C776        C  0.48850068  0.95516456  0.26119327    -0.11900
C777        C  0.23099526  0.86292047  0.25773411    -0.10400
C778        C  0.18617818  0.83548821  0.24832372    -0.11900
C779        C  0.91619367  0.80917980  0.37279561    -0.10400
C780        C  0.86705874  0.79300415  0.37723412    -0.11900
C781        C  0.02247662  0.77533758  0.31969248    -0.10400
C782        C  0.01235551  0.75301060  0.30272702    -0.11900
C783        C  0.42121174  0.22933781  0.42756628    -0.10400
C784        C  0.43803794  0.27875724  0.43169190    -0.11900
C785        C  0.16721649  0.90467546  0.39458229    -0.10400
C786        C  0.12283386  0.87809402  0.38485074    -0.11900
C787        C  0.34344396  0.98310599  0.34013969    -0.10400
C788        C  0.33417412  0.96199882  0.32296141    -0.11900
C789        C  0.59441965  0.84811458  0.54393667    -0.10400
C790        C  0.57610952  0.79920787  0.53872736    -0.11900
C791        C  0.66674990  0.10167176  0.48895129    -0.10400
C792        C  0.67804346  0.09012795  0.50584264    -0.11900
C793        C  0.56273098  0.10169669  0.42430341    -0.10400
C794        C  0.51834531  0.08370263  0.41453679    -0.11900
C795        C  0.50504364  0.99724624  0.56011006    -0.10400
C796        C  0.46046093  0.98037943  0.55063375    -0.11900
C797        C  0.35818333  0.97859331  0.48545708    -0.10400
C798        C  0.34693399  0.98876800  0.46835138    -0.11900
C799        C  0.10804038  0.26679642  0.60038846    -0.10400
C800        C  0.15710970  0.28502081  0.59534771    -0.11900
C801        C  0.85587727  0.16665854  0.58024206    -0.10400
C802        C  0.90008615  0.19245045  0.59011082    -0.11900
C803        C  0.53365550  0.10881365  0.71244147    -0.10400
C804        C  0.58271700  0.12493359  0.70798134    -0.11900
C805        C  0.68214470  0.09099020  0.63396729    -0.10400
C806        C  0.69225938  0.11058981  0.65134843    -0.11900
C807        C  0.77010580  0.89546883  0.09692315    -0.10400
C808        C  0.78710319  0.94515566  0.10070743    -0.11900
C809        C  0.90075016  0.76109424  0.09154783    -0.10400
C810        C  0.85593613  0.74296846  0.08212801    -0.11900
C811        C  0.68967745  0.63732689  0.15444446    -0.10400
C812        C  0.68049727  0.64967466  0.13733013    -0.11900
C813        C  0.77217077  0.61629268  0.93373859    -0.10400
C814        C  0.82101312  0.63405659  0.92850834    -0.11900
C815        C  0.66423211  0.62751782  0.99165400    -0.10400
C816        C  0.67541055  0.64778614  0.00895646    -0.11900
C817        C  0.25354381  0.47671069  0.04060851    -0.10400
C818        C  0.20388751  0.45910622  0.04454369    -0.11900
C819        C  0.46098527  0.54940498  0.05253179    -0.10400
C820        C  0.50484819  0.57555465  0.06263356    -0.11900
C821        C  0.26234755  0.18623694  0.87857790    -0.10400
C822        C  0.24472216  0.13769808  0.87297034    -0.11900
C823        C  0.56263918  0.53457723  0.92531154    -0.10400
C824        C  0.51846768  0.50770378  0.91550946    -0.11900
C825        C  0.34905068  0.42916521  0.96920040    -0.10400
C826        C  0.36128275  0.45118049  0.98624454    -0.11900
C827        C  0.08568102  0.55592557  0.76148148    -0.10400
C828        C  0.10097430  0.60496856  0.76581336    -0.11900
C829        C  0.83599386  0.22970594  0.72742604    -0.10400
C830        C  0.79145306  0.20242131  0.71789727    -0.11900
C831        C  0.00090776  0.29051221  0.65585597    -0.10400
C832        C  0.01092831  0.31221738  0.67293099    -0.11900
C833        C  0.02542242  0.30437963  0.81823136    -0.10400
C834        C  0.01457242  0.31448062  0.80103737    -0.11900
C835        C  0.12392481  0.31026115  0.88502844    -0.10400
C836        C  0.16793364  0.32838066  0.89500775    -0.11900
C837        C  0.23092495  0.43021266  0.75715914    -0.10400
C838        C  0.18680029  0.41260943  0.74729333    -0.11900
C839        C  0.32937276  0.43536055  0.82388682    -0.10400
C840        C  0.34018811  0.42588235  0.84117989    -0.11900
C841        C  0.53884372  0.46395107  0.70737906    -0.10400
C842        C  0.57100558  0.51271954  0.71254663    -0.11900
C843        C  0.43957305  0.56098092  0.76776695    -0.10400
C844        C  0.48887188  0.59264154  0.76320246    -0.11900
C845        C  0.87582335  0.81667968  0.87342884    -0.10400
C846        C  0.90765795  0.79947550  0.87814287    -0.11900
C847        C  0.73848091  0.77974926  0.81919971    -0.10400
C848        C  0.72832741  0.75642034  0.80241121    -0.11900
C849        C  0.47990628  0.93220817  0.76722779    -0.10400
C850        C  0.44724367  0.94847450  0.76239924    -0.11900
C851        C  0.61749225  0.86139917  0.75825917    -0.10400
C852        C  0.63572147  0.83457446  0.74890642    -0.11900
C853        C  0.75949523  0.92837235  0.59580326    -0.10400
C854        C  0.77684027  0.89711215  0.60120632    -0.11900
C855        C  0.75458746  0.76830853  0.65738723    -0.10400
C856        C  0.73331122  0.75680633  0.67452442    -0.11900
C857        C  0.90859364  0.50354441  0.70764399    -0.10400
C858        C  0.92458378  0.47045879  0.71214871    -0.11900
C859        C  0.83856769  0.64096170  0.71887823    -0.10400
C860        C  0.81171309  0.65883206  0.72841712    -0.11900
C861        C  0.86581410  0.14895774  0.87916416    -0.10400
C862        C  0.91522698  0.17967881  0.87452713    -0.11900
C863        C  0.78264240  0.23188837  0.92847649    -0.10400
C864        C  0.81452891  0.28135346  0.93286021    -0.11900
C865        C  0.71887329  0.91016154  0.89350279    -0.10400
C866        C  0.73680346  0.88401970  0.88360912    -0.11900
C867        C  0.62381446  0.98564911  0.83979278    -0.10400
C868        C  0.61317074  0.96346741  0.82278015    -0.11900
C869        C  0.42793966  0.26895292  0.93039444    -0.10400
C870        C  0.44602766  0.23794408  0.93523315    -0.11900
C871        C  0.54501493  0.08610075  0.91351541    -0.10400
C872        C  0.51936256  0.10442663  0.92344453    -0.11900
C873        C  0.60695102  0.81937888  0.04825176    -0.10400
C874        C  0.59112093  0.85233675  0.04335130    -0.11900
C875        C  0.60432748  0.97528820  0.98599882    -0.10400
C876        C  0.62285680  0.98623551  0.96843150    -0.11900
C877        C  0.86540674  0.13792558  0.37377435    -0.10400
C878        C  0.89685622  0.18663973  0.37918813    -0.11900
C879        C  0.76973138  0.24032590  0.43501522    -0.10400
C880        C  0.81874748  0.27263305  0.43020720    -0.11900
C881        C  0.11659106  0.56618838  0.26845242    -0.10400
C882        C  0.09867786  0.59716359  0.26341428    -0.11900
C883        C  0.08851038  0.43571564  0.32430613    -0.10400
C884        C  0.06613850  0.42597194  0.34125489    -0.11900
C885        C  0.24070780  0.17645442  0.37545491    -0.10400
C886        C  0.25793692  0.14417707  0.37958703    -0.11900
C887        C  0.16537989  0.31004995  0.38561418    -0.10400
C888        C  0.13858697  0.32800467  0.39516414    -0.11900
C889        C  0.48241237  0.60584200  0.26596626    -0.10400
C890        C  0.45048052  0.55618468  0.26189960    -0.11900
C891        C  0.53046142  0.47128078  0.21337831    -0.10400
C892        C  0.57992606  0.50326028  0.20894130    -0.11900
C893        C  0.18405488  0.42751378  0.25856056    -0.10400
C894        C  0.20945170  0.40893957  0.24859226    -0.11900
C895        C  0.28571282  0.31621155  0.30277318    -0.10400
C896        C  0.26446197  0.30669735  0.31995189    -0.11900
C897        C  0.24110088  0.84947492  0.04472318    -0.10400
C898        C  0.20875901  0.80086215  0.03937265    -0.11900
C899        C  0.10902358  0.89590163  0.10129130    -0.10400
C900        C  0.15782002  0.92830094  0.09624275    -0.11900
C901        C  0.51097060  0.98196692  0.05225162    -0.10400
C902        C  0.48291878  0.99899384  0.06142910    -0.11900
C903        C  0.42293135  0.10504685  0.98974792    -0.10400
C904        C  0.40137821  0.09314579  0.00682805    -0.11900
C905        C  0.53857911  0.13754216  0.20699912    -0.10400
C906        C  0.57026572  0.11979331  0.21124679    -0.11900
C907        C  0.40817330  0.11549725  0.15189963    -0.10400
C908        C  0.39801072  0.09385512  0.13481383    -0.11900
C909        C  0.38415943  0.23373588  0.22875855    -0.10400
C910        C  0.40273792  0.20846963  0.21868682    -0.11900
C911        C  0.12312607  0.29446901  0.09356169    -0.10400
C912        C  0.15484496  0.27735064  0.09872843    -0.11900
C913        C  0.28452952  0.19712856  0.09057648    -0.10400
C914        C  0.30254134  0.17035232  0.08109154    -0.11900
C915        C  0.28547331  0.30959546  0.17419375    -0.10400
C916        C  0.27523548  0.29007851  0.15675028    -0.11900
C917        C  0.11937356  0.89811634  0.59612871    -0.10400
C918        C  0.15155135  0.94733551  0.60061112    -0.11900
C919        C  0.25144344  0.84898501  0.54123997    -0.10400
C920        C  0.20244861  0.81699892  0.54613228    -0.11900
C921        C  0.87978365  0.74746482  0.58227667    -0.10400
C922        C  0.85299904  0.76503100  0.59192973    -0.11900
C923        C  0.96204690  0.65411455  0.63659001    -0.10400
C924        C  0.94069338  0.64182735  0.65373458    -0.11900
C925        C  0.81986530  0.61391869  0.43326370    -0.10400
C926        C  0.78762387  0.63014646  0.42784601    -0.11900
C927        C  0.95693235  0.65184689  0.50780267    -0.10400
C928        C  0.94541945  0.63199284  0.49042492    -0.11900
C929        C  0.95263371  0.53805331  0.42432979    -0.10400
C930        C  0.97027177  0.51106721  0.41480579    -0.11900
C931        C  0.23538697  0.45046684  0.54518264    -0.10400
C932        C  0.20410667  0.46867070  0.54084732    -0.11900
C933        C  0.07711081  0.55041704  0.55247747    -0.10400
C934        C  0.05985129  0.57728801  0.56227463    -0.11900
C935        C  0.06219255  0.42978737  0.46912471    -0.10400
C936        C  0.07386115  0.45133832  0.48622505    -0.11900
loop_ 
_geom_bond_atom_site_label_1 
_geom_bond_atom_site_label_2 
_geom_bond_distance 
_geom_bond_site_symmetry_2 
_ccdc_geom_bond_type 
C1            C2   1.411       .  A
C1            C6   1.415       .  A
C1          C933   1.461       .  S
C2            C3   1.408       .  A
C2            H7   1.084       .  S
C3            C4   1.392       .  A
C3          C932   1.440       .  S
C4            C5   1.392       .  A
C4            H8   1.086       .  S
C5            C6   1.411       .  A
C5          C936   1.446       .  S
C6            H9   1.084       .  S
C10          C11   1.414       .  A
C10          C15   1.410       .  A
C10         C929   1.462       .  S
C11          C12   1.411       .  A
C11          H16   1.084       .  S
C12          C13   1.396       .  A
C12         C928   1.449       .  S
C13          C14   1.395       .  A
C13          H17   1.086       .  S
C14          C15   1.408       .  A
C14         C925   1.444       .  S
C15          H18   1.084       .  S
O19          C34   1.257   1_455  A
O19         Al27   1.904       .  S
C20         C927   1.445       .  S
C20          O30   1.257   1_655  A
C20          O21   1.262       .  A
O21         Al23   1.930       .  S
O22          C24   1.261   1_655  A
O22         Al23   1.899       .  S
Al23         O31   1.899       .  S
Al23         O33   1.929       .  S
Al23         O32   1.787   1_655  S
C24         C934   1.455       .  S
C24          O37   1.272       .  A
O25          C35   1.256       .  A
O25         Al27   1.883       .  S
O26          C39   1.255       .  A
O26         Al36   1.882       .  S
Al27         O40   1.931       .  S
Al27         O37   1.956       .  S
Al27         O32   1.780       .  S
O28          C35   1.266       .  A
O28         Al36   1.933       .  S
O29          C38   1.271       .  A
O29         Al36   1.954   1_655  S
O30         Al36   1.901       .  S
O31          C38   1.261       .  A
O32         Al36   1.780       .  S
O33          C34   1.262       .  A
C34         C923   1.445       .  S
C35         C920   1.435       .  S
C38         C921   1.454       .  S
C39         C917   1.433       .  S
C39          O40   1.265       .  A
C41          C42   1.415       .  A
C41          C46   1.411       .  A
C41         C913   1.464       .  S
C42          C43   1.412       .  A
C42          H47   1.084       .  S
C43          C44   1.394       .  A
C43         C916   1.449       .  S
C44          C45   1.394       .  A
C44          H48   1.086       .  S
C45          C46   1.409       .  A
C45         C912   1.444       .  S
C46          H49   1.084       .  S
C50          C51   1.410       .  A
C50          C55   1.416       .  A
C50         C910   1.461       .  S
C51          C52   1.407       .  A
C51          H56   1.084       .  S
C52          C53   1.391       .  A
C52         C905   1.439       .  S
C53          C54   1.392       .  A
C53          H57   1.086       .  S
C54          C55   1.412       .  A
C54         C907   1.446       .  S
C55          H58   1.084       .  S
O59          C74   1.271   1_565  A
O59         Al67   1.955       .  S
C60         C914   1.459       .  S
C60          O70   1.271       .  A
C60          O61   1.261       .  A
O61         Al63   1.904       .  S
O62          C64   1.261       .  A
O62         Al63   1.923       .  S
Al63         O71   1.923       .  S
Al63         O73   1.905       .  S
Al63         O72   1.790       .  S
C64         C908   1.443       .  S
C64          O77   1.257       .  A
O65          C75   1.265       .  A
O65         Al67   1.930       .  S
O66          C79   1.265       .  A
O66         Al76   1.931   1_565  S
Al67         O80   1.892       .  S
Al67         O77   1.903   1_565  S
Al67         O72   1.781   1_565  S
O68          C75   1.256   1_545  A
O68         Al76   1.887       .  S
O69          C78   1.256       .  A
O69         Al76   1.901       .  S
O70         Al76   1.956       .  S
O71          C78   1.261       .  A
O72         Al76   1.781       .  S
O73          C74   1.261       .  A
C74         C902   1.458   1_545  S
C75         C900   1.436       .  S
C78         C904   1.442       .  S
C79         C897   1.439       .  S
C79          O80   1.258       .  A
O81          C96   1.257       .  A
O81         Al89   1.903       .  S
C82         C915   1.445       .  S
C82          O92   1.257       .  A
C82          O83   1.263       .  A
O83         Al85   1.932       .  S
O84          C86   1.260       .  A
O84         Al85   1.898       .  S
Al85         O93   1.895       .  S
Al85         O95   1.932       .  S
Al85         O94   1.788       .  S
C86         C909   1.455       .  S
C86          O99   1.272       .  A
O87          C97   1.257       .  A
O87         Al89   1.886       .  S
O88         C101   1.255       .  A
O88         Al98   1.882       .  S
Al89        O102   1.934       .  S
Al89         O99   1.956       .  S
Al89         O94   1.780       .  S
O90          C97   1.267       .  A
O90         Al98   1.939       .  S
O91         C100   1.272       .  A
O91         Al98   1.956       .  S
O92         Al98   1.900       .  S
O93         C100   1.259       .  A
O94         Al98   1.778       .  S
O95          C96   1.263       .  A
C96         C895   1.447       .  S
C97         C891   1.438       .  S
C100        C894   1.454       .  S
C101        C890   1.435       .  S
C101        O102   1.265       .  A
C103        C104   1.417       .  A
C103        C108   1.413       .  A
C103        C887   1.467       .  S
C104        C105   1.413       .  A
C104        H109   1.084       .  S
C105        C106   1.392       .  A
C105        C896   1.449       .  S
C106        C107   1.392       .  A
C106        H110   1.086       .  S
C107        C108   1.410       .  A
C107        C885   1.443       .  S
C108        H111   1.084       .  S
C112        C113   1.416       .  A
C112        C117   1.408       .  A
C112        C893   1.460       .  S
C113        C114   1.412       .  A
C113        H118   1.084       .  S
C114        C115   1.392       .  A
C114        C883   1.446       .  S
C115        C116   1.391       .  A
C115        H119   1.086       .  S
C116        C117   1.406       .  A
C116        C881   1.437       .  S
C117        H120   1.084       .  S
O121        C136   1.271       .  A
O121       Al129   1.954       .  S
C122        C888   1.461       .  S
C122        O132   1.273       .  A
C122        O123   1.261       .  A
O123       Al125   1.903       .  S
O124        C126   1.261       .  A
O124       Al125   1.924       .  S
Al125       O133   1.924       .  S
Al125       O135   1.903       .  S
Al125       O134   1.790   1_455  S
C126        C884   1.443       .  S
C126        O139   1.257   1_455  A
O127        C137   1.265       .  A
O127       Al129   1.931       .  S
O128        C141   1.266       .  A
O128       Al138   1.931       .  S
Al129       O142   1.887       .  S
Al129       O139   1.902       .  S
Al129       O134   1.781       .  S
O130        C137   1.257       .  A
O130       Al138   1.887       .  S
O131        C140   1.256       .  A
O131       Al138   1.903   1_455  S
O132       Al138   1.960   1_455  S
O133        C140   1.261       .  A
O134       Al138   1.779       .  S
O135        C136   1.261   1_455  A
C136        C930   1.457       .  S
C137        C878   1.437       .  S
C140        C935   1.444       .  S
C141        C880   1.436       .  S
C141        O142   1.257       .  A
C143        C144   1.414       .  A
C143        C148   1.412       .  A
C143        C901   1.463       .  S
C144        C145   1.411       .  A
C144        H149   1.084   1_565  S
C145        C146   1.395       .  A
C145        C875   1.449   1_554  S
C146        C147   1.395       .  A
C146        H150   1.086       .  S
C147        C148   1.410       .  A
C147        C874   1.445       .  S
C148        H151   1.084       .  S
C152        C153   1.414       .  A
C152        C157   1.409       .  A
C152        C872   1.459       .  S
C153        C154   1.410       .  A
C153        H158   1.084       .  S
C154        C155   1.393       .  A
C154        C903   1.445       .  S
C155        C156   1.392       .  A
C155        H159   1.086       .  S
C156        C157   1.407       .  A
C156        C870   1.439       .  S
C157        H160   1.084       .  S
O161        C176   1.257       .  A
O161       Al169   1.902       .  S
C162        C876   1.445       .  S
C162        O172   1.256   1_565  A
C162        O163   1.262       .  A
O163       Al165   1.932       .  S
O164        C166   1.260       .  A
O164       Al165   1.897   1_545  S
Al165       O173   1.897       .  S
Al165       O175   1.930       .  S
Al165       O174   1.787   1_565  S
C166        C871   1.453       .  S
C166        O179   1.272       .  A
O167        C177   1.256       .  A
O167       Al169   1.883       .  S
O168        C181   1.254       .  A
O168       Al178   1.879       .  S
Al169       O182   1.932       .  S
Al169       O179   1.954       .  S
Al169       O174   1.780       .  S
O170        C177   1.267       .  A
O170       Al178   1.938       .  S
O171        C180   1.273       .  A
O171       Al178   1.957   1_565  S
O172       Al178   1.900       .  S
O173        C180   1.260       .  A
O174       Al178   1.777       .  S
O175        C176   1.263   1_565  A
C176        C867   1.445   1_545  S
C177        C863   1.436       .  S
C180        C865   1.456       .  S
C181        C861   1.433       .  S
C181        O182   1.265       .  A
C183        C184   1.412       .  A
C183        C188   1.415       .  A
C183        C859   1.465       .  S
C184        C185   1.410       .  A
C184        H189   1.084       .  S
C185        C186   1.394       .  A
C185        C857   1.445       .  S
C186        C187   1.394       .  A
C186        H190   1.086       .  S
C187        C188   1.412       .  A
C187        C924   1.449       .  S
C188        H191   1.084       .  S
C192        C193   1.414       .  A
C192        C197   1.409       .  A
C192        C922   1.460       .  S
C193        C194   1.411       .  A
C193        H198   1.084       .  S
C194        C195   1.394       .  A
C194        C855   1.446       .  S
C195        C196   1.393       .  A
C195        H199   1.086       .  S
C196        C197   1.407       .  A
C196        C854   1.441       .  S
C197        H200   1.084       .  S
C201        C202   1.413       .  A
C201        C206   1.416       .  A
C201        C851   1.466       .  S
C202        C203   1.410       .  A
C202        H207   1.084       .  S
C203        C204   1.393       .  A
C203        C849   1.445       .  S
C204        C205   1.393       .  A
C204        H208   1.086       .  S
C205        C206   1.412       .  A
C205        C868   1.449       .  S
C206        H209   1.084       .  S
C210        C211   1.416       .  A
C210        C215   1.410       .  A
C210        C866   1.462       .  S
C211        C212   1.413       .  A
C211        H216   1.084       .  S
C212        C213   1.392       .  A
C212        C847   1.447       .  S
C213        C214   1.391       .  A
C213        H217   1.086       .  S
C214        C215   1.407       .  A
C214        C845   1.439       .  S
C215        H218   1.084       .  S
O219        C234   1.271       .  A
O219       Al227   1.956       .  S
C220        C860   1.460       .  S
C220        O230   1.272       .  A
C220        O221   1.261       .  A
O221       Al223   1.907       .  S
O222        C224   1.262       .  A
O222       Al223   1.925       .  S
Al223       O231   1.925       .  S
Al223       O233   1.907       .  S
Al223       O232   1.788       .  S
C224        C856   1.442       .  S
C224        O237   1.257       .  A
O225        C235   1.266       .  A
O225       Al227   1.934       .  S
O226        C239   1.265       .  A
O226       Al236   1.931       .  S
Al227       O240   1.883       .  S
Al227       O237   1.900       .  S
Al227       O232   1.779       .  S
O228        C235   1.257       .  A
O228       Al236   1.888       .  S
O229        C238   1.257       .  A
O229       Al236   1.903       .  S
O230       Al236   1.957       .  S
O231        C238   1.262       .  A
O232       Al236   1.781       .  S
O233        C234   1.261       .  A
C234        C852   1.460       .  S
C235        C842   1.437       .  S
C238        C848   1.444       .  S
C239        C844   1.434       .  S
C239        O240   1.256       .  A
C241        C242   1.416       .  A
C241        C246   1.410       .  A
C241        C837   1.462       .  S
C242        C243   1.412       .  A
C242        H247   1.084       .  S
C243        C244   1.392       .  A
C243        C839   1.446       .  S
C244        C245   1.391       .  A
C244        H248   1.086       .  S
C245        C246   1.407       .  A
C245        C843   1.439       .  S
C246        H249   1.084       .  S
C250        C251   1.410       .  A
C250        C255   1.416       .  A
C250        C835   1.462       .  S
C251        C252   1.407   1_455  A
C251        H256   1.084       .  S
C252        C253   1.391       .  A
C252        C862   1.439       .  S
C253        C254   1.392   1_655  A
C253        H257   1.086       .  S
C254        C255   1.412       .  A
C254        C833   1.446       .  S
C255        H258   1.084       .  S
O259        C274   1.272       .  A
O259       Al267   1.958       .  S
C260        C829   1.453       .  S
C260        O270   1.271       .  A
C260        O261   1.260       .  A
O261       Al263   1.899   1_655  S
O262        C264   1.261       .  A
O262       Al263   1.925       .  S
Al263       O271   1.926   1_455  S
Al263       O273   1.897       .  S
Al263       O272   1.790       .  S
C264        C832   1.444       .  S
C264        O277   1.257       .  A
O265        C275   1.266   1_455  A
O265       Al267   1.934       .  S
O266        C279   1.265       .  A
O266       Al276   1.931   1_455  S
Al267       O280   1.888       .  S
Al267       O277   1.903       .  S
Al267       O272   1.779       .  S
O268        C275   1.258       .  A
O268       Al276   1.891       .  S
O269        C278   1.258       .  A
O269       Al276   1.903       .  S
O270       Al276   1.953       .  S
O271        C278   1.262       .  A
O272       Al276   1.780   1_455  S
O273        C274   1.260       .  A
C274        C838   1.456       .  S
C275        C858   1.439       .  S
C278        C834   1.443   1_655  S
C279        C827   1.438       .  S
C279        O280   1.257       .  A
O281        C296   1.257       .  A
O281       Al289   1.903       .  S
C282        C840   1.443       .  S
C282        O292   1.256       .  A
C282        O283   1.262       .  A
O283       Al285   1.928       .  S
O284        C286   1.259       .  A
O284       Al285   1.898       .  S
Al285       O293   1.897       .  S
Al285       O295   1.929       .  S
Al285       O294   1.788       .  S
C286        C836   1.456       .  S
C286        O299   1.272       .  A
O287        C297   1.257       .  A
O287       Al289   1.886       .  S
O288        C301   1.255       .  A
O288       Al298   1.883       .  S
Al289       O302   1.931       .  S
Al289       O299   1.956       .  S
Al289       O294   1.780       .  S
O290        C297   1.265       .  A
O290       Al298   1.931       .  S
O291        C300   1.271       .  A
O291       Al298   1.954       .  S
O292       Al298   1.897       .  S
O293        C300   1.259       .  A
O294       Al298   1.779       .  S
O295        C296   1.263       .  A
C296        C825   1.446       .  S
C297        C821   1.435       .  S
C300        C824   1.455       .  S
C301        C869   1.433       .  S
C301        O302   1.265       .  A
C303        C304   1.411       .  A
C303        C308   1.418       .  A
C303        C819   1.465       .  S
C304        C305   1.408       .  A
C304        H309   1.084       .  S
C305        C306   1.390       .  A
C305        C817   1.440       .  S
C306        C307   1.391       .  A
C306        H310   1.086       .  S
C307        C308   1.414       .  A
C307        C826   1.449   1_554  S
C308        H311   1.084       .  S
C312        C313   1.415       .  A
C312        C317   1.409       .  A
C312        C823   1.461       .  S
C313        C314   1.412       .  A
C313        H318   1.084       .  S
C314        C315   1.393       .  A
C314        C815   1.447       .  S
C315        C316   1.392       .  A
C315        H319   1.086       .  S
C316        C317   1.406       .  A
C316        C813   1.440       .  S
C317        H320   1.084       .  S
O321        C336   1.273       .  A
O321       Al329   1.961       .  S
C322        C810   1.454       .  S
C322        O332   1.270       .  A
C322        O323   1.260       .  A
O323       Al325   1.901       .  S
O324        C326   1.261       .  A
O324       Al325   1.927       .  S
Al325       O333   1.929       .  S
Al325       O335   1.897       .  S
Al325       O334   1.789       .  S
C326        C812   1.446       .  S
C326        O339   1.257       .  A
O327        C337   1.267       .  A
O327       Al329   1.937       .  S
O328        C341   1.264       .  A
O328       Al338   1.932       .  S
Al329       O342   1.890       .  S
Al329       O339   1.906       .  S
Al329       O334   1.778       .  S
O330        C337   1.257       .  A
O330       Al338   1.885       .  S
O331        C340   1.257       .  A
O331       Al338   1.900       .  S
O332       Al338   1.952       .  S
O333        C340   1.263       .  A
O334       Al338   1.780       .  S
O335        C336   1.260       .  A
C336        C820   1.459       .  S
C337        C807   1.437       .  S
C340        C816   1.443       .  S
C341        C873   1.439       .  S
C341        O342   1.257       .  A
C343        C344   1.414       .  A
C343        C348   1.410       .  A
C343        C830   1.459       .  S
C344        C345   1.410       .  A
C344        H349   1.084       .  S
C345        C346   1.392       .  A
C345        C806   1.444       .  S
C346        C347   1.392       .  A
C346        H350   1.086       .  S
C347        C348   1.407       .  A
C347        C804   1.440       .  S
C348        H351   1.084       .  S
C352        C353   1.415       .  A
C352        C357   1.410   1_655  A
C352        C802   1.461       .  S
C353        C354   1.411       .  A
C353        H358   1.084       .  S
C354        C355   1.393   1_655  A
C354        C831   1.447   1_655  S
C355        C356   1.393       .  A
C355        H359   1.086       .  S
C356        C357   1.407       .  A
C356        C799   1.440       .  S
C357        H360   1.084       .  S
C361        C362   1.410       .  A
C361        C366   1.415       .  A
C361        C796   1.460       .  S
C362        C363   1.407       .  A
C362        H367   1.084       .  S
C363        C364   1.392       .  A
C363        C919   1.440       .  S
C364        C365   1.393       .  A
C364        H368   1.086       .  S
C365        C366   1.411       .  A
C365        C797   1.446       .  S
C366        H369   1.084   1_565  S
C370        C371   1.410       .  A
C370        C375   1.416       .  A
C370        C793   1.464       .  S
C371        C372   1.408       .  A
C371        H376   1.084       .  S
C372        C373   1.393       .  A
C372        C879   1.441       .  S
C373        C374   1.393       .  A
C373        H377   1.086       .  S
C374        C375   1.413       .  A
C374        C791   1.449       .  S
C375        H378   1.084       .  S
O379        C394   1.256       .  A
O379       Al387   1.896   1_545  S
C380        C792   1.445       .  S
C380        O390   1.257       .  A
C380        O381   1.262       .  A
O381       Al383   1.927       .  S
O382        C384   1.260       .  A
O382       Al383   1.899       .  S
Al383       O391   1.899       .  S
Al383       O393   1.925       .  S
Al383       O392   1.788       .  S
C384        C795   1.455   1_545  S
C384        O397   1.271   1_545  A
O385        C395   1.256       .  A
O385       Al387   1.882       .  S
O386        C399   1.256       .  A
O386       Al396   1.886   1_565  S
Al387       O400   1.931       .  S
Al387       O397   1.954       .  S
Al387       O392   1.780   1_565  S
O388        C395   1.265       .  A
O388       Al396   1.929   1_565  S
O389        C398   1.271       .  A
O389       Al396   1.954       .  S
O390       Al396   1.903       .  S
O391        C398   1.260       .  A
O392       Al396   1.780       .  S
O393        C394   1.261       .  A
C394        C805   1.440       .  S
C395        C789   1.433       .  S
C398        C801   1.455       .  S
C399        C853   1.435       .  S
C399        O400   1.265       .  A
O401        C416   1.273       .  A
O401       Al409   1.960       .  S
C402        C785   1.456       .  S
C402        O412   1.272       .  A
C402        O403   1.261       .  A
O403       Al405   1.901       .  S
O404        C406   1.262   1_565  A
O404       Al405   1.928       .  S
Al405       O413   1.927       .  S
Al405       O415   1.900   1_565  S
Al405       O414   1.787   1_565  S
C406        C787   1.444   1_545  S
C406        O419   1.257       .  A
O407        C417   1.268       .  A
O407       Al409   1.940       .  S
O408        C421   1.265       .  A
O408       Al418   1.934       .  S
Al409       O422   1.882       .  S
Al409       O419   1.902       .  S
Al409       O414   1.777       .  S
O410        C417   1.256       .  A
O410       Al418   1.884       .  S
O411        C420   1.257   1_545  A
O411       Al418   1.901       .  S
O412       Al418   1.956   1_565  S
O413        C420   1.262       .  A
O414       Al418   1.779       .  S
O415        C416   1.260       .  A
C416        C794   1.458       .  S
C417        C886   1.438       .  S
C420        C798   1.443       .  S
C421        C783   1.435       .  S
C421        O422   1.255       .  A
C423        C424   1.411       .  A
C423        C428   1.415       .  A
C423        C786   1.462       .  S
C424        C425   1.408   1_455  A
C424        H429   1.084       .  S
C425        C426   1.393       .  A
C425        C779   1.442       .  S
C426        C427   1.393   1_655  A
C426        H430   1.086       .  S
C427        C428   1.411       .  A
C427        C781   1.447       .  S
C428        H431   1.084       .  S
C432        C433   1.410       .  A
C432        C437   1.414       .  A
C432        C777   1.462       .  S
C433        C434   1.408       .  A
C433        H438   1.084       .  S
C434        C435   1.394       .  A
C434        C775   1.443       .  S
C435        C436   1.395       .  A
C435        H439   1.086       .  S
C436        C437   1.411       .  A
C436        C788   1.448       .  S
C437        H440   1.084       .  S
C441        C442   1.410   1_655  A
C441        C446   1.413       .  A
C441        C809   1.460       .  S
C442        C443   1.408       .  A
C442        H447   1.084       .  S
C443        C444   1.393       .  A
C443        C899   1.442       .  S
C444        C445   1.394       .  A
C444        H448   1.086       .  S
C445        C446   1.409   1_455  A
C445        C774   1.445       .  S
C446        H449   1.084       .  S
C450        C451   1.415       .  A
C450        C455   1.412       .  A
C450        C772   1.464       .  S
C451        C452   1.412       .  A
C451        H456   1.084       .  S
C452        C453   1.394       .  A
C452        C811   1.449       .  S
C453        C454   1.393       .  A
C453        H457   1.086       .  S
C454        C455   1.410       .  A
C454        C892   1.444       .  S
C455        H458   1.084       .  S
O459        C474   1.256       .  A
O459       Al467   1.903       .  S
C460        C773   1.441       .  S
C460        O470   1.256       .  A
C460        O461   1.261       .  A
O461       Al463   1.925       .  S
O462        C464   1.261       .  A
O462       Al463   1.904   1_655  S
Al463       O471   1.903       .  S
Al463       O473   1.925   1_455  S
Al463       O472   1.787       .  S
C464        C771   1.459       .  S
C464        O477   1.272       .  A
O465        C475   1.256       .  A
O465       Al467   1.884       .  S
O466        C479   1.255       .  A
O466       Al476   1.881       .  S
Al467       O480   1.929   1_655  S
Al467       O477   1.957       .  S
Al467       O472   1.780   1_655  S
O468        C475   1.266   1_455  A
O468       Al476   1.933       .  S
O469        C478   1.271       .  A
O469       Al476   1.954       .  S
O470       Al476   1.898       .  S
O471        C478   1.261       .  A
O472       Al476   1.780       .  S
O473        C474   1.261       .  A
C474        C782   1.443   1_655  S
C475        C770   1.436       .  S
C478        C778   1.456       .  S
C479        C882   1.432       .  S
C479        O480   1.265       .  A
C481        C482   1.413       .  A
C481        C486   1.411       .  A
C481        C765   1.461       .  S
C482        C483   1.410       .  A
C482        H487   1.084       .  S
C483        C484   1.394       .  A
C483        C767   1.447       .  S
C484        C485   1.394       .  A
C484        H488   1.086       .  S
C485        C486   1.409       .  A
C485        C828   1.444       .  S
C486        H489   1.084       .  S
C490        C491   1.413       .  A
C490        C495   1.408   1_565  A
C490        C764   1.459       .  S
C491        C492   1.410   1_565  A
C491        H496   1.084       .  S
C492        C493   1.395       .  A
C492        C762   1.447       .  S
C493        C494   1.394       .  A
C493        H497   1.086       .  S
C494        C495   1.407       .  A
C494        C822   1.440       .  S
C495        H498   1.084       .  S
O499        C514   1.272       .  A
O499       Al507   1.959       .  S
C500        C766   1.456       .  S
C500        O510   1.270       .  A
C500        O501   1.261       .  A
O501       Al503   1.903   1_565  S
O502        C504   1.261       .  A
O502       Al503   1.924       .  S
Al503       O511   1.925       .  S
Al503       O513   1.900       .  S
Al503       O512   1.789       .  S
C504        C761   1.443       .  S
C504        O517   1.257       .  A
O505        C515   1.267   1_545  A
O505       Al507   1.938       .  S
O506        C519   1.264       .  A
O506       Al516   1.928   1_545  S
Al507       O520   1.885       .  S
Al507       O517   1.902       .  S
Al507       O512   1.778       .  S
O508        C515   1.258       .  A
O508       Al516   1.890       .  S
O509        C518   1.258       .  A
O509       Al516   1.903   1_545  S
O510       Al516   1.954       .  S
O511        C518   1.262       .  A
O512       Al516   1.782   1_545  S
O513        C514   1.260       .  A
C514        C757   1.459       .  S
C515        C850   1.440       .  S
C518        C759   1.443       .  S
C519        C803   1.434       .  S
C519        O520   1.255       .  A
C521        C522   1.414       .  A
C521        C526   1.410   1_565  A
C521        C753   1.461       .  S
C522        C523   1.411   1_565  A
C522        H527   1.084       .  S
C523        C524   1.395       .  A
C523        C755   1.447       .  S
C524        C525   1.394       .  A
C524        H528   1.086       .  S
C525        C526   1.408       .  A
C525        C877   1.443       .  S
C526        H529   1.084       .  S
C530        C531   1.411       .  A
C530        C535   1.415       .  A
C530        C751   1.463       .  S
C531        C532   1.409       .  A
C531        H536   1.084       .  S
C532        C533   1.392       .  A
C532        C889   1.441       .  S
C533        C534   1.392       .  A
C533        H537   1.086       .  S
C534        C535   1.412       .  A
C534        C750   1.447       .  S
C535        H538   1.084       .  S
C539        C540   1.415       .  A
C539        C544   1.411       .  A
C539        C745   1.464       .  S
C540        C541   1.412       .  A
C540        H545   1.084       .  S
C541        C542   1.395       .  A
C541        C748   1.449   1_554  S
C542        C543   1.394       .  A
C542        H546   1.086       .  S
C543        C544   1.408       .  A
C543        C898   1.444       .  S
C544        H547   1.084       .  S
C548        C549   1.411       .  A
C548        C553   1.417       .  A
C548        C743   1.464       .  S
C549        C550   1.408       .  A
C549        H554   1.084       .  S
C550        C551   1.392       .  A
C550        C864   1.442       .  S
C551        C552   1.392       .  A
C551        H555   1.086       .  S
C552        C553   1.413       .  A
C552        C741   1.450       .  S
C553        H556   1.084       .  S
C557        C558   1.418       .  A
C557        C562   1.412       .  A
C557        C737   1.467       .  S
C558        C559   1.414       .  A
C558        H563   1.084       .  S
C559        C560   1.392       .  A
C559        C739   1.450       .  S
C560        C561   1.391       .  A
C560        H564   1.086   1_545  S
C561        C562   1.410       .  A
C561        C808   1.442   1_545  S
C562        H565   1.084       .  S
C566        C567   1.415       .  A
C566        C571   1.409       .  A
C566        C736   1.461       .  S
C567        C568   1.412       .  A
C567        H572   1.084       .  S
C568        C569   1.394       .  A
C568        C734   1.448       .  S
C569        C570   1.393       .  A
C569        H573   1.086       .  S
C570        C571   1.407       .  A
C570        C769   1.441       .  S
C571        H574   1.084       .  S
O575        C590   1.272       .  A
O575       Al583   1.957       .  S
C576        C738   1.461       .  S
C576        O586   1.273       .  A
C576        O577   1.261       .  A
O577       Al579   1.903       .  S
O578        C580   1.262       .  A
O578       Al579   1.928       .  S
Al579       O587   1.927       .  S
Al579       O589   1.904       .  S
Al579       O588   1.788   1_655  S
C580        C733   1.444       .  S
C580        O593   1.257   1_655  A
O581        C591   1.266       .  A
O581       Al583   1.935       .  S
O582        C595   1.266       .  A
O582       Al592   1.934       .  S
Al583       O596   1.881       .  S
Al583       O593   1.901       .  S
Al583       O588   1.779       .  S
O584        C591   1.257       .  A
O584       Al592   1.888       .  S
O585        C594   1.257   1_455  A
O585       Al592   1.908       .  S
O586       Al592   1.962   1_655  S
O587        C594   1.262       .  A
O588       Al592   1.779       .  S
O589        C590   1.261   1_655  A
C590        C746   1.458       .  S
C591        C911   1.439       .  S
C594        C742   1.447       .  S
C595        C818   1.434       .  S
C595        O596   1.255       .  A
O597        C612   1.258       .  A
O597       Al605   1.907   1_545  S
C598        C756   1.444       .  S
C598        O608   1.256       .  A
C598        O599   1.262       .  A
O599       Al601   1.929       .  S
O600        C602   1.260       .  A
O600       Al601   1.900   1_565  S
Al601       O609   1.899       .  S
Al601       O611   1.929       .  S
Al601       O610   1.788       .  S
C602        C752   1.457       .  S
C602        O615   1.272       .  A
O603        C613   1.258       .  A
O603       Al605   1.888       .  S
O604        C617   1.255       .  A
O604       Al614   1.882       .  S
Al605       O618   1.931   1_565  S
Al605       O615   1.957       .  S
Al605       O610   1.781   1_565  S
O606        C613   1.266   1_545  A
O606       Al614   1.934       .  S
O607        C616   1.271       .  A
O607       Al614   1.954       .  S
O608       Al614   1.899       .  S
O609        C616   1.260       .  A
O610       Al614   1.779       .  S
O611        C612   1.262       .  A
C612        C740   1.448       .  S
C613        C776   1.438       .  S
C616        C735   1.455       .  S
C617        C906   1.434       .  S
C617        O618   1.265       .  A
O619        C634   1.256   1_655  A
O619       Al627   1.900       .  S
C620        C747   1.445       .  S
C620        O630   1.257       .  A
C620        O621   1.262       .  A
O621       Al623   1.928       .  S
O622        C624   1.261   1_455  A
O622       Al623   1.899       .  S
Al623       O631   1.899       .  S
Al623       O633   1.927       .  S
Al623       O632   1.788       .  S
C624        C744   1.458       .  S
C624        O637   1.273       .  A
O625        C635   1.255       .  A
O625       Al627   1.881       .  S
O626        C639   1.256       .  A
O626       Al636   1.883       .  S
Al627       O640   1.933       .  S
Al627       O637   1.960       .  S
Al627       O632   1.779   1_655  S
O628        C635   1.264       .  A
O628       Al636   1.930       .  S
O629        C638   1.271       .  A
O629       Al636   1.953   1_455  S
O630       Al636   1.903   1_455  S
O631        C638   1.260       .  A
O632       Al636   1.781   1_455  S
O633        C634   1.261       .  A
C634        C768   1.443       .  S
C635        C814   1.434       .  S
C638        C763   1.453       .  S
C639        C846   1.434       .  S
C639        O640   1.266       .  A
C641        C642   1.411       .  A
C641        C646   1.416       .  A
C641        C729   1.463       .  S
C642        C643   1.408       .  A
C642        H647   1.084       .  S
C643        C644   1.391       .  A
C643        C784   1.440       .  S
C644        C645   1.392       .  A
C644        H648   1.086       .  S
C645        C646   1.412       .  A
C645        C732   1.447       .  S
C646        H649   1.084       .  S
C650        C651   1.408       .  A
C650        C655   1.415       .  A
C650        C728   1.460       .  S
C651        C652   1.406       .  A
C651        H656   1.084       .  S
C652        C653   1.392       .  A
C652        C790   1.438       .  S
C653        C654   1.393       .  A
C653        H657   1.086       .  S
C654        C655   1.412       .  A
C654        C725   1.446       .  S
C655        H658   1.084       .  S
O659        C674   1.272       .  A
O659       Al667   1.958       .  S
C660        C754   1.455       .  S
C660        O670   1.271       .  A
C660        O661   1.260       .  A
O661       Al663   1.900       .  S
O662        C664   1.261       .  A
O662       Al663   1.924       .  S
Al663       O671   1.925       .  S
Al663       O673   1.899       .  S
Al663       O672   1.790       .  S
C664        C749   1.444       .  S
C664        O677   1.257       .  A
O665        C675   1.266       .  A
O665       Al667   1.932       .  S
O666        C679   1.264       .  A
O666       Al676   1.929       .  S
Al667       O680   1.891       .  S
Al667       O677   1.904       .  S
Al667       O672   1.779       .  S
O668        C675   1.257       .  A
O668       Al676   1.887       .  S
O669        C678   1.257       .  A
O669       Al676   1.902       .  S
O670       Al676   1.954       .  S
O671        C678   1.262       .  A
O672       Al676   1.781       .  S
O673        C674   1.260       .  A
C674        C730   1.457       .  S
C675        C780   1.436       .  S
C678        C726   1.443       .  S
C679        C926   1.438       .  S
C679        O680   1.257       .  A
C681        C682   1.416       .  A
C681        C686   1.410       .  A
C681        C758   1.464       .  S
C682        C683   1.413       .  A
C682        H687   1.084       .  S
C683        C684   1.394       .  A
C683        C724   1.449       .  S
C684        C685   1.393       .  A
C684        H688   1.086       .  S
C685        C686   1.408       .  A
C685        C841   1.442       .  S
C686        H689   1.084       .  S
C690        C691   1.416       .  A
C690        C695   1.409       .  A
C690        C722   1.460       .  S
C691        C692   1.412       .  A
C691        H696   1.084       .  S
C692        C693   1.392       .  A
C692        C760   1.446       .  S
C693        C694   1.391       .  A
C693        H697   1.086   1_545  S
C694        C695   1.406       .  A
C694        C918   1.438   1_545  S
C695        H698   1.084       .  S
O699        C714   1.257       .  A
O699       Al707   1.900       .  S
C700        C723   1.446       .  S
C700        O710   1.256       .  A
C700        O701   1.263       .  A
O701       Al703   1.931       .  S
O702        C704   1.259       .  A
O702       Al703   1.895       .  S
Al703       O711   1.894       .  S
Al703       O713   1.930       .  S
Al703       O712   1.788       .  S
C704        C721   1.454       .  S
C704        O717   1.272       .  A
O705        C715   1.256       .  A
O705       Al707   1.884       .  S
O706        C719   1.255       .  A
O706       Al716   1.881       .  S
Al707       O720   1.936       .  S
Al707       O717   1.956       .  S
Al707       O712   1.779       .  S
O708        C715   1.266       .  A
O708       Al716   1.934       .  S
O709        C718   1.272       .  A
O709       Al716   1.956       .  S
O710       Al716   1.900       .  S
O711        C718   1.259       .  A
O712       Al716   1.778       .  S
O713        C714   1.263       .  A
C714        C731   1.444       .  S
C715        C800   1.435       .  S
C718        C727   1.454       .  S
C719        C931   1.435       .  S
C719        O720   1.266       .  A
C721        C722   1.218       .  T
C723        C724   1.212       .  T
C725        C726   1.211       .  T
C727        C728   1.218       .  T
C729        C730   1.220       .  T
C731        C732   1.211       .  T
C733        C734   1.211       .  T
C735        C736   1.219       .  T
C737        C738   1.222       .  T
C739        C740   1.213       .  T
C741        C742   1.213   1_556  T
C743        C744   1.220       .  T
C745        C746   1.220       .  T
C747        C748   1.212       .  T
C749        C750   1.211       .  T
C751        C752   1.220       .  T
C753        C754   1.218       .  T
C755        C756   1.211       .  T
C757        C758   1.220       .  T
C759        C760   1.211       .  T
C761        C762   1.211       .  T
C763        C764   1.217       .  T
C765        C766   1.219       .  T
C767        C768   1.211       .  T
C769        C770   1.207       .  T
C771        C772   1.220       .  T
C773        C774   1.209       .  T
C775        C776   1.208       .  T
C777        C778   1.219       .  T
C779        C780   1.207       .  T
C781        C782   1.211       .  T
C783        C784   1.207       .  T
C785        C786   1.219       .  T
C787        C788   1.211       .  T
C789        C790   1.205       .  T
C791        C792   1.212       .  T
C793        C794   1.220       .  T
C795        C796   1.218       .  T
C797        C798   1.210       .  T
C799        C800   1.206       .  T
C801        C802   1.218       .  T
C803        C804   1.206       .  T
C805        C806   1.209       .  T
C807        C808   1.208       .  T
C809        C810   1.218       .  T
C811        C812   1.212       .  T
C813        C814   1.206       .  T
C815        C816   1.211   1_556  T
C817        C818   1.206       .  T
C819        C820   1.221       .  T
C821        C822   1.206       .  T
C823        C824   1.218       .  T
C825        C826   1.212       .  T
C827        C828   1.208       .  T
C829        C830   1.217       .  T
C831        C832   1.211       .  T
C833        C834   1.211       .  T
C835        C836   1.219       .  T
C837        C838   1.219       .  T
C839        C840   1.211       .  T
C841        C842   1.207       .  T
C843        C844   1.206       .  T
C845        C846   1.206       .  T
C847        C848   1.211       .  T
C849        C850   1.209       .  T
C851        C852   1.221       .  T
C853        C854   1.206       .  T
C855        C856   1.210       .  T
C857        C858   1.209       .  T
C859        C860   1.221       .  T
C861        C862   1.206       .  T
C863        C864   1.207       .  T
C865        C866   1.219       .  T
C867        C868   1.212       .  T
C869        C870   1.205       .  T
C871        C872   1.217       .  T
C873        C874   1.209       .  T
C875        C876   1.212       .  T
C877        C878   1.208       .  T
C879        C880   1.207       .  T
C881        C882   1.205       .  T
C883        C884   1.211       .  T
C885        C886   1.208       .  T
C887        C888   1.222       .  T
C889        C890   1.207       .  T
C891        C892   1.209       .  T
C893        C894   1.218       .  T
C895        C896   1.213       .  T
C897        C898   1.209       .  T
C899        C900   1.207       .  T
C901        C902   1.220       .  T
C903        C904   1.210   1_556  T
C905        C906   1.206       .  T
C907        C908   1.211       .  T
C909        C910   1.219       .  T
C911        C912   1.209       .  T
C913        C914   1.220       .  T
C915        C916   1.212       .  T
C917        C918   1.205       .  T
C919        C920   1.206       .  T
C921        C922   1.218       .  T
C923        C924   1.212       .  T
C925        C926   1.209       .  T
C927        C928   1.212       .  T
C929        C930   1.219       .  T
C931        C932   1.207       .  T
C933        C934   1.219       .  T
C935        C936   1.211       .  T
