geometry optimzed in LAMMPS
_audit_creation_date              2020-11-30 
_audit_creation_method            'lammps2cif' 
_symmetry_space_group_name_H-M    'P1' 
_symmetry_Int_Tables_number       1 
_symmetry_cell_setting            triclinic 
loop_ 
_symmetry_equiv_pos_as_xyz 
  x,y,z 
_cell_length_a                    25.70724715 
_cell_length_b                    25.68549053324965 
_cell_length_c                    26.319802760268903 
_cell_angle_alpha                 90.37117197669754 
_cell_angle_beta                  91.06079036721887 
_cell_angle_gamma                 89.94682162404783 
loop_ 
_atom_site_label 
_atom_site_type_symbol 
_atom_site_fract_x 
_atom_site_fract_y 
_atom_site_fract_z 
_atom_site_charge 
In1        In  0.38757837  0.11441287  0.35637643     1.36900
C2          C  0.38205024  0.01394775  0.33850882     0.77600
O3          O  0.46617890  0.08077547  0.36442751    -0.60900
O4          O  0.46078170  0.16325137  0.37246184    -0.51800
C5          C  0.35663691  0.15411859  0.26780194     0.70200
O6          O  0.33253380  0.11858985  0.28948396    -0.46700
C7          C  0.33558049  0.11838581  0.44281751     0.74900
O8          O  0.35192550  0.03741428  0.36771268    -0.58500
O9          O  0.38353311  0.12853146  0.44202795    -0.48600
O10         O  0.41436437  0.04206402  0.31607019    -0.55000
C11         C  0.48986115  0.12330173  0.37048633     0.85100
O12         O  0.38991597  0.17703340  0.29573777    -0.56800
O13         O  0.31411541  0.11705371  0.39953445    -0.60100
In14       In  0.64947293  0.11524470  0.36174346     1.36900
C15         C  0.65852045  0.01462911  0.34424003     0.77600
O16         O  0.70511117  0.12143771  0.29717732    -0.60900
O17         O  0.64464293  0.17675526  0.30022018    -0.51800
C18         C  0.54708048  0.12343033  0.37116221     0.70200
O19         O  0.57098221  0.08119604  0.36422921    -0.46700
C20         C  0.69697559  0.11924396  0.45311122     0.74900
O21         O  0.62315514  0.04103491  0.32297606    -0.58500
O22         O  0.72077427  0.11874634  0.41176277    -0.48600
O23         O  0.68986087  0.03993812  0.37176059    -0.55000
C24         C  0.67858651  0.15461711  0.27369895     0.85100
O25         O  0.57592374  0.16341063  0.37553521    -0.56800
O26         O  0.64907405  0.12864838  0.44783158    -0.60100
In27       In  0.65636655  0.85733244  0.35693846     1.36900
C28         C  0.65999182  0.95854730  0.34329363     0.77600
O29         O  0.57742876  0.88952949  0.36682238    -0.60900
O30         O  0.58264604  0.80689607  0.36386025    -0.51800
C31         C  0.68888768  0.82153542  0.26756613     0.70200
O32         O  0.70943107  0.85948134  0.29011144    -0.46700
C33         C  0.70648759  0.85118042  0.44675871     0.74900
O34         O  0.69236379  0.93423496  0.37030938    -0.58500
O35         O  0.65897861  0.83968491  0.44190614    -0.48600
O36         O  0.62649317  0.93086571  0.32039824    -0.55000
C37         C  0.55353867  0.84675770  0.36660421     0.85100
O38         O  0.65868483  0.79531031  0.29470579    -0.56800
O39         O  0.72917047  0.85468284  0.40502934    -0.60100
In40       In  0.39322608  0.85852422  0.35340749     1.36900
C41         C  0.38299044  0.95806647  0.33687700     0.77600
O42         O  0.33895494  0.85887584  0.28579589    -0.60900
O43         O  0.39540899  0.79882317  0.28997229    -0.51800
C44         C  0.49609007  0.84699664  0.36591213     0.70200
O45         O  0.47264310  0.88984274  0.36291252    -0.46700
C46         C  0.34115475  0.85270501  0.43990473     0.74900
O47         O  0.41886551  0.93234482  0.31656902    -0.58500
O48         O  0.32648963  0.82833604  0.40023218    -0.48600
O49         O  0.35062129  0.93218767  0.36123418    -0.55000
C50         C  0.36265892  0.82334843  0.26290589     0.85100
O51         O  0.46647986  0.80743684  0.36542968    -0.56800
O52         O  0.38604940  0.87167795  0.43697601    -0.60100
In53       In  0.65100897  0.85589176  0.12553814     1.36900
C54         C  0.55055818  0.86657221  0.12972251     0.77600
O55         O  0.63652713  0.93342498  0.15779303    -0.60900
O56         O  0.69904039  0.92853813  0.10598336    -0.51800
C57         C  0.68775562  0.81917821  0.21181737     0.70200
O58         O  0.64953090  0.79872822  0.18891931    -0.46700
C59         C  0.64906296  0.79774097  0.04060118     0.74900
O60         O  0.57636157  0.84576872  0.16506678    -0.58500
O61         O  0.65916404  0.84581218  0.04066633    -0.48600
O62         O  0.57605731  0.88247338  0.09273321    -0.55000
C63         C  0.67018940  0.95738204  0.13297802     0.85100
O64         O  0.71496434  0.84921467  0.18496437    -0.56800
O65         O  0.64945171  0.77851096  0.08448607    -0.60100
In66       In  0.39498868  0.86211798  0.12217021     1.36900
C67         C  0.49514213  0.86968798  0.13010102     0.77600
O68         O  0.40342988  0.80576977  0.18531563    -0.60900
O69         O  0.33339573  0.85055135  0.18039822    -0.51800
C70         C  0.36678806  0.96120810  0.12777136     0.70200
O71         O  0.39979338  0.93954084  0.15635610    -0.46700
C72         C  0.39741656  0.80331024  0.03842123     0.74900
O73         O  0.46991322  0.88994330  0.09407123    -0.58500
O74         O  0.37419069  0.78940361  0.07808466    -0.48600
O75         O  0.46893105  0.84928143  0.16449982    -0.55000
C76         C  0.36361445  0.82250106  0.20736547     0.85100
O77         O  0.34306844  0.93084575  0.09699436    -0.56800
O78         O  0.41471412  0.84891283  0.04077017    -0.60100
In79       In  0.38742470  0.11857893  0.12471461     1.36900
C80         C  0.48810111  0.11065670  0.13626347     0.77600
O81         O  0.39172683  0.04226651  0.16084937    -0.60900
O82         O  0.34114425  0.04691839  0.09620192    -0.51800
C83         C  0.35708966  0.15621629  0.21219358     0.70200
O84         O  0.39606562  0.17413249  0.18990260    -0.46700
C85         C  0.38808827  0.17334873  0.03889126     0.74900
O86         O  0.46259673  0.14537837  0.15879504    -0.58500
O87         O  0.41510861  0.13350953  0.04677682    -0.48600
O88         O  0.46204619  0.07938216  0.10919424    -0.55000
C89         C  0.36384569  0.01825823  0.12884146     0.85100
O90         O  0.32712451  0.12811641  0.18479856    -0.56800
O91         O  0.35505294  0.18230543  0.07309626    -0.60100
In92       In  0.64440001  0.11548963  0.12975739     1.36900
C93         C  0.54391117  0.10908507  0.13780212     0.77600
O94         O  0.63649539  0.17113389  0.19475343    -0.60900
O95         O  0.70548064  0.12531649  0.19167084    -0.51800
C96         C  0.66928939  0.01472894  0.13385188     0.70200
O97         O  0.63758991  0.03729327  0.16228061    -0.46700
C98         C  0.64121300  0.17343858  0.04517688     0.74900
O99         O  0.56888755  0.07994945  0.10841129    -0.58500
O100        O  0.67463999  0.18141817  0.08041661    -0.48600
O101        O  0.57063988  0.13920965  0.16561397    -0.55000
C102        C  0.67619055  0.15415906  0.21798237     0.85100
O103        O  0.69369099  0.04482591  0.10458332    -0.56800
O104        O  0.61501709  0.13294473  0.05124023    -0.60100
In105      In  0.88167282  0.33941973  0.36275576     1.36900
C106        C  0.98252933  0.34081964  0.34333742     0.77600
O107        O  0.90591768  0.41580897  0.39320786    -0.60900
O108        O  0.82679986  0.40999859  0.36756420    -0.51800
C109        C  0.84781162  0.31383519  0.26991683     0.70200
O110        O  0.88125498  0.28759869  0.29353700    -0.46700
C111        C  0.87846780  0.28504779  0.44901264     0.74900
O112        O  0.95966604  0.30268164  0.36205346    -0.58500
O113        O  0.86483762  0.33202216  0.44688363    -0.48600
O114        O  0.95365781  0.37889145  0.33246089    -0.55000
C115        C  0.86295443  0.43876445  0.38556540     0.85100
O116        O  0.82328530  0.34561347  0.29730602    -0.56800
O117        O  0.88109281  0.26368525  0.40607244    -0.60100
In118      In  0.88803447  0.59433870  0.37809160     1.36900
C119        C  0.98798113  0.59882562  0.36813037     0.77600
O120        O  0.90312597  0.57330138  0.29981491    -0.60900
O121        O  0.85029145  0.63645803  0.30882622    -0.51800
C122        C  0.86057529  0.49579854  0.39266384     0.70200
O123        O  0.89800818  0.51802344  0.41461934    -0.46700
C124        C  0.89033289  0.66463756  0.45432198     0.74900
O125        O  0.96665972  0.56345040  0.39299222    -0.58500
O126        O  0.85494050  0.66635054  0.41999029    -0.48600
O127        O  0.95810742  0.63085821  0.34664730    -0.55000
C128        C  0.87679198  0.60859944  0.27874212     0.85100
O129        O  0.82864222  0.52659610  0.37117538    -0.56800
O130        O  0.91904941  0.62553009  0.45088712    -0.60100
In131      In  0.14166254  0.34597632  0.35204902     1.36900
C132        C  0.03877628  0.34157412  0.34014263     0.77600
O133        O  0.14345655  0.29318652  0.28446811    -0.60900
O134        O  0.20699840  0.34407032  0.29545068    -0.51800
C135        C  0.15527985  0.44944166  0.35813072     0.70200
O136        O  0.11567779  0.42705329  0.33928509    -0.46700
C137        C  0.14638753  0.29542108  0.44117491     0.74900
O138        O  0.06430392  0.38059492  0.32639313    -0.58500
O139        O  0.14007159  0.27333974  0.39885920    -0.48600
O140        O  0.06576117  0.30472711  0.35719924    -0.55000
C141        C  0.18193472  0.31464285  0.26545649     0.85100
O142        O  0.18969069  0.41861131  0.37587159    -0.56800
O143        O  0.15877340  0.34283548  0.43773351    -0.60100
In144      In  0.14335623  0.61052945  0.36435496     1.36900
C145        C  0.04305382  0.60309541  0.36597274     0.77600
O146        O  0.12144249  0.53202451  0.33649851    -0.60900
O147        O  0.19066695  0.53566851  0.38193593    -0.51800
C148        C  0.17637403  0.64230879  0.27513706     0.70200
O149        O  0.13633919  0.66034815  0.29545774    -0.46700
C150        C  0.14495625  0.67335612  0.44642934     0.74900
O151        O  0.06530022  0.62994817  0.33308096    -0.58500
O152        O  0.15432609  0.62513844  0.44864953    -0.48600
O153        O  0.07199171  0.57996682  0.39739471    -0.55000
C154        C  0.15725628  0.50714876  0.35876466     0.85100
O155        O  0.20503658  0.61477892  0.30414776    -0.56800
O156        O  0.14616946  0.69041242  0.40177534    -0.60100
In157      In  0.88895383  0.35071749  0.12809078     1.36900
C158        C  0.89535473  0.45088642  0.13903011     0.77600
O159        O  0.96606834  0.34961629  0.16570337    -0.60900
O160        O  0.95951358  0.30691754  0.09631061    -0.51800
C161        C  0.84968060  0.31835898  0.21446519     0.70200
O162        O  0.83553505  0.35989342  0.19338508    -0.46700
C163        C  0.83640007  0.35387823  0.03988502     0.74900
O164        O  0.85427379  0.42667920  0.14868589    -0.58500
O165        O  0.87764127  0.37874009  0.04838272    -0.48600
O166        O  0.93376662  0.42368289  0.12700188    -0.55000
C167        C  0.98917801  0.32543732  0.13102662     0.85100
O168        O  0.87655067  0.28828990  0.18698192    -0.56800
O169        O  0.82519707  0.32229543  0.07485275    -0.60100
In170      In  0.89894715  0.60642439  0.12516373     1.36900
C171        C  0.89747061  0.50636851  0.13755313     0.77600
O172        O  0.91855880  0.58937897  0.20351776    -0.60900
O173        O  0.85550812  0.64253428  0.19340107    -0.51800
C174        C  0.99442736  0.64020826  0.10765592     0.70200
O175        O  0.97117911  0.60618433  0.08162428    -0.46700
C176        C  0.83368858  0.60410034  0.04418060     0.74900
O177        O  0.93830525  0.53005257  0.12585262    -0.58500
O178        O  0.82878785  0.63814750  0.07922681    -0.48600
O179        O  0.85805461  0.53417465  0.14501478    -0.55000
C180        C  0.88285940  0.61502468  0.22382702     0.85100
O181        O  0.96526464  0.66637188  0.13643236    -0.56800
O182        O  0.87293441  0.57565654  0.05013247    -0.60100
In183      In  0.15203618  0.61511089  0.12488654     1.36900
C184        C  0.14632599  0.51324122  0.13655857     0.77600
O185        O  0.07444058  0.59984758  0.09174999    -0.60900
O186        O  0.08122622  0.66949748  0.13543962    -0.51800
C187        C  0.18001724  0.64141886  0.21958682     0.70200
O188        O  0.19569466  0.60114621  0.19777084    -0.46700
C189        C  0.20681559  0.62073405  0.03910915     0.74900
O190        O  0.18837665  0.53709952  0.13178850    -0.58500
O191        O  0.16126455  0.63828543  0.04178227    -0.48600
O192        O  0.10637507  0.54144493  0.13748868    -0.55000
C193        C  0.05169926  0.63874478  0.11036486     0.85100
O194        O  0.15707591  0.67348473  0.19052031    -0.56800
O195        O  0.22702556  0.61168805  0.08185857    -0.60100
In196      In  0.14605029  0.35544837  0.12508185     1.36900
C197        C  0.14471828  0.45710501  0.13687786     0.77600
O198        O  0.20013404  0.36099991  0.19168411    -0.60900
O199        O  0.15785880  0.29044134  0.18080348    -0.51800
C200        C  0.04636620  0.32804228  0.12965100     0.70200
O201        O  0.07017191  0.35532995  0.16246635    -0.46700
C202        C  0.19803595  0.35737771  0.03898126     0.74900
O203        O  0.10382033  0.43176638  0.12759695    -0.58500
O204        O  0.21131959  0.32751353  0.07508169    -0.48600
O205        O  0.18532047  0.43040754  0.14271985    -0.55000
C206        C  0.18450241  0.31920139  0.21053434     0.85100
O207        O  0.07470316  0.31016280  0.09459008    -0.56800
O208        O  0.15373814  0.37712232  0.04435037    -0.60100
In209      In  0.38414560  0.85391492  0.62522265     1.36900
C210        C  0.37676004  0.95448332  0.64282713     0.77600
O211        O  0.46257330  0.88581477  0.61613434    -0.60900
O212        O  0.45679619  0.80286797  0.61567280    -0.51800
C213        C  0.35535103  0.81701999  0.71457168     0.70200
O214        O  0.33054797  0.85176072  0.69150714    -0.46700
C215        C  0.33484338  0.84933262  0.53517916     0.74900
O216        O  0.34332078  0.92928773  0.61772095    -0.58500
O217        O  0.38312133  0.84159230  0.53953376    -0.48600
O218        O  0.41371855  0.92805079  0.66124950    -0.55000
C219        C  0.48603219  0.84268596  0.61433023     0.83500
O220        O  0.38773248  0.79304206  0.68761363    -0.56800
O221        O  0.31169925  0.84848114  0.57686662    -0.60100
In222      In  0.64539465  0.85514336  0.62828419     1.36900
C223        C  0.65011491  0.95398419  0.64870159     0.77600
O224        O  0.69986879  0.85803986  0.69547231    -0.60900
O225        O  0.64639580  0.79527530  0.69122194    -0.51800
C226        C  0.54330908  0.84255072  0.61445823     0.70200
O227        O  0.56650660  0.88550450  0.61612913    -0.46700
C228        C  0.69893958  0.85322693  0.54241317     0.74900
O229        O  0.61718520  0.92569184  0.67001792    -0.58500
O230        O  0.71499385  0.83089488  0.58249427    -0.48600
O231        O  0.68200121  0.93102485  0.62092370    -0.55000
C232        C  0.67802989  0.82161650  0.71832315     0.85100
O233        O  0.57295847  0.80294786  0.61638521    -0.56800
O234        O  0.65233597  0.86778288  0.54442742    -0.60100
In235      In  0.37957576  0.11173858  0.63194947     1.36900
C236        C  0.37512986  0.01050550  0.64485328     0.77600
O237        O  0.32686284  0.11073322  0.69896066    -0.60900
O238        O  0.37672533  0.17533308  0.69250303    -0.51800
C239        C  0.48255067  0.12137964  0.62487089     0.70200
O240        O  0.45858693  0.07885986  0.62738028    -0.46700
C241        C  0.33220130  0.11651393  0.54063475     0.74900
O242        O  0.41029833  0.03760801  0.66589416    -0.58500
O243        O  0.30869465  0.11088941  0.58165896    -0.48600
O244        O  0.34112019  0.03542307  0.62031198    -0.55000
C245        C  0.34737647  0.14922986  0.72053926     0.85100
O246        O  0.45357794  0.16145183  0.62405587    -0.56800
O247        O  0.37911299  0.12978606  0.54674541    -0.60100
In248      In  0.64250027  0.10978583  0.63763732     1.36900
C249        C  0.64885244  0.00955863  0.65004575     0.77600
O250        O  0.56315778  0.07781513  0.62942085    -0.60900
O251        O  0.56936151  0.16036692  0.62614130    -0.51800
C252        C  0.67771169  0.14797129  0.72626760     0.70200
O253        O  0.69571859  0.10790802  0.70594244    -0.46700
C254        C  0.69357407  0.11365315  0.55072268     0.74900
O255        O  0.67824010  0.03460580  0.62181281    -0.58500
O256        O  0.64594878  0.12536933  0.55236606    -0.48600
O257        O  0.61617313  0.03591967  0.67448734    -0.55000
C258        C  0.53983379  0.12079054  0.62595155     0.85100
O259        O  0.64789400  0.17413779  0.69756811    -0.56800
O260        O  0.71518919  0.10966671  0.59371788    -0.60100
In261      In  0.38984420  0.85600346  0.85803732     1.36900
C262        C  0.49037470  0.86288584  0.84923448     0.77600
O263        O  0.39483428  0.93315283  0.82288083    -0.60900
O264        O  0.34172142  0.92705126  0.88349950    -0.51800
C265        C  0.35764962  0.81695208  0.77027337     0.70200
O266        O  0.39731741  0.79979888  0.79340466    -0.46700
C267        C  0.39301334  0.80251196  0.94511764     0.74900
O268        O  0.46456472  0.82800426  0.82637353    -0.58500
O269        O  0.41874861  0.84293864  0.93722328    -0.48600
O270        O  0.46457627  0.89524156  0.87441310    -0.55000
C271        C  0.36498343  0.95643574  0.85270461     0.85100
O272        O  0.32839106  0.84570402  0.79670162    -0.56800
O273        O  0.36007288  0.79215576  0.91002931    -0.60100
In274      In  0.64704075  0.85803900  0.86176282     1.36900
C275        C  0.54620476  0.86362309  0.85031518     0.77600
O276        O  0.64036159  0.80151623  0.79712415    -0.60900
O277        O  0.70659889  0.85140973  0.80053957    -0.51800
C278        C  0.66874318  0.95925834  0.85907641     0.70200
O279        O  0.63856167  0.93580117  0.82871505    -0.46700
C280        C  0.64756634  0.80077500  0.94669488     0.74900
O281        O  0.57112314  0.89291284  0.88039461    -0.58500
O282        O  0.67959983  0.79235048  0.91154329    -0.48600
O283        O  0.57300978  0.83294109  0.82415696    -0.55000
C284        C  0.67799641  0.82112356  0.77402002     0.85100
O285        O  0.69396343  0.92985825  0.88931500    -0.56800
O286        O  0.62082127  0.84105136  0.94014041    -0.60100
In287      In  0.64414820  0.11730562  0.86747972     1.36900
C288        C  0.54359701  0.10720701  0.86114515     0.77600
O289        O  0.63158031  0.03920395  0.83557983    -0.60900
O290        O  0.69477524  0.04629275  0.88866641    -0.51800
C291        C  0.67877142  0.15319345  0.78174729     0.70200
O292        O  0.64077375  0.17377518  0.80356111    -0.46700
C293        C  0.64153149  0.17620747  0.95151389     0.74900
O294        O  0.56934537  0.12566293  0.82548329    -0.58500
O295        O  0.65225483  0.12825221  0.95231680    -0.48600
O296        O  0.56935174  0.09176614  0.89912200    -0.55000
C297        C  0.66680220  0.01651321  0.86080776     0.85100
O298        O  0.70728919  0.12456094  0.80979573    -0.56800
O299        O  0.64204121  0.19507795  0.90746941    -0.60100
In300      In  0.38728725  0.11452724  0.86181195     1.36900
C301        C  0.48800855  0.10641521  0.85976243     0.77600
O302        O  0.39015202  0.17044463  0.79771696    -0.60900
O303        O  0.32235289  0.12327754  0.80389003    -0.51800
C304        C  0.36556925  0.01371383  0.85387888     0.70200
O305        O  0.39931572  0.03703818  0.82859105    -0.46700
C306        C  0.38906377  0.17403758  0.94545761     0.74900
O307        O  0.46233318  0.09060403  0.89664794    -0.58500
O308        O  0.38331813  0.19243414  0.90148408    -0.48600
O309        O  0.46212757  0.12398957  0.82276289    -0.55000
C310        C  0.35018862  0.15184555  0.77613938     0.85100
O311        O  0.33819987  0.04294002  0.88189162    -0.56800
O312        O  0.38448366  0.12517440  0.94656821    -0.60100
C313        C  0.30511873  0.10425163  0.48973764    -0.02500
C314        C  0.13541122  0.26683444  0.49079133    -0.02500
C315        C  0.89788293  0.25815612  0.49783849    -0.02500
C316        C  0.72430454  0.10361146  0.50289249    -0.02500
C317        C  0.90024002  0.70391490  0.49770024    -0.02500
C318        C  0.73373506  0.86615921  0.49731523    -0.02500
C319        C  0.30658251  0.86375861  0.48538619    -0.02500
C320        C  0.13382688  0.70812085  0.49341405    -0.02500
C321        C  0.79729211  0.59554552  0.99773875    -0.02500
C322        C  0.63811185  0.76538466  0.99222549    -0.02500
C323        C  0.63078387  0.20911448  0.99939723    -0.02500
C324        C  0.80244636  0.36425214  0.99266267    -0.02500
C325        C  0.23558301  0.60875022  0.98960710    -0.02500
C326        C  0.40462807  0.76863693  0.99174103    -0.02500
C327        C  0.23299301  0.37091309  0.99403397    -0.02500
C328        C  0.39820070  0.20799772  0.99299251    -0.02500
In329      In  0.15627814  0.35322063  0.62441354     1.36900
C330        C  0.05558085  0.35465869  0.63264469     0.77600
O331        O  0.14671449  0.43133099  0.65662935    -0.60900
O332        O  0.20401945  0.42451929  0.59943291    -0.51800
C333        C  0.18755461  0.32021531  0.71401820     0.70200
O334        O  0.14872163  0.30138948  0.69098686    -0.46700
C335        C  0.15157649  0.30021926  0.53715599     0.74900
O336        O  0.08207445  0.31574544  0.64562378    -0.58500
O337        O  0.13961410  0.34727564  0.54127675    -0.48600
O338        O  0.08062404  0.39327423  0.61755861    -0.55000
C339        C  0.17808442  0.45437254  0.62826467     0.85100
O340        O  0.21749237  0.34713191  0.68685943    -0.56800
O341        O  0.17597053  0.28296001  0.57574407    -0.60100
In342      In  0.15061744  0.61249075  0.62294610     1.36900
C343        C  0.05066608  0.60233796  0.63260163     0.77600
O344        O  0.21067015  0.62565130  0.68508599    -0.60900
O345        O  0.14145801  0.67136752  0.68488150    -0.51800
C346        C  0.17689025  0.51180629  0.62744356     0.70200
O347        O  0.14625897  0.53475460  0.65653090    -0.46700
C348        C  0.14448996  0.67313637  0.53975389     0.74900
O349        O  0.07422758  0.58391920  0.59511301    -0.58500
O350        O  0.17893980  0.68055779  0.57422599    -0.48600
O351        O  0.07856793  0.62275399  0.66701109    -0.55000
C352        C  0.18029116  0.65496237  0.70976739     0.85100
O353        O  0.19966697  0.54153542  0.59658315    -0.56800
O354        O  0.11825712  0.63268854  0.54625073    -0.60100
In355      In  0.89414728  0.61365468  0.63138375     1.36900
C356        C  0.99505988  0.60412829  0.63371337     0.77600
O357        O  0.91056696  0.53552517  0.66193134    -0.60900
O358        O  0.84598754  0.54079660  0.61041139    -0.51800
C359        C  0.85858714  0.64693199  0.71874928     0.70200
O360        O  0.89754276  0.66699198  0.69836707    -0.46700
C361        C  0.89202856  0.67260846  0.54705450     0.74900
O362        O  0.97110689  0.62666808  0.66872904    -0.58500
O363        O  0.88262735  0.62437651  0.54734075    -0.48600
O364        O  0.96745625  0.58559362  0.59821120    -0.55000
C365        C  0.87601031  0.51169700  0.63656820     0.85100
O366        O  0.83067440  0.61868520  0.68946733    -0.56800
O367        O  0.89307355  0.69218558  0.59107316    -0.60100
In368      In  0.89906928  0.35315022  0.62782971     1.36900
C369        C  0.99997142  0.35452974  0.63263960     0.77600
O370        O  0.91033868  0.30420312  0.69602834    -0.60900
O371        O  0.83818422  0.34458860  0.68751073    -0.51800
C372        C  0.87694024  0.45428562  0.63556365     0.70200
O373        O  0.91081122  0.43086991  0.66192630    -0.46700
C374        C  0.89194830  0.29522914  0.54354051     0.74900
O375        O  0.97405509  0.39103467  0.61320126    -0.58500
O376        O  0.87121716  0.28246968  0.58477589    -0.48600
O377        O  0.97434394  0.31745723  0.65042175    -0.55000
C378        C  0.86907450  0.31934473  0.71624733     0.85100
O379        O  0.84976925  0.42500154  0.60643872    -0.56800
O380        O  0.90979563  0.34078895  0.54412833    -0.60100
In381      In  0.88645258  0.60754846  0.86441928     1.36900
C382        C  0.88459348  0.51047744  0.83477566     0.77600
O383        O  0.96727944  0.58166966  0.88077974    -0.60900
O384        O  0.95754814  0.66296751  0.87087704    -0.51800
C385        C  0.85643110  0.64389034  0.77432076     0.70200
O386        O  0.83372382  0.60673806  0.79524663    -0.46700
C387        C  0.83214252  0.60545818  0.95150320     0.74900
O388        O  0.84398078  0.53451397  0.84682734    -0.58500
O389        O  0.87208934  0.57870338  0.94357847    -0.48600
O390        O  0.92517722  0.53749077  0.83234646    -0.55000
C391        C  0.98900785  0.62517525  0.87611725     0.85100
O392        O  0.88733948  0.66894199  0.80324079    -0.56800
O393        O  0.82356283  0.63892138  0.91720250    -0.60100
In394      In  0.89229901  0.35754968  0.86125369     1.36900
C395        C  0.88633063  0.45463847  0.83352479     0.77600
O396        O  0.89851203  0.29720453  0.79961046    -0.60900
O397        O  0.83966397  0.35509909  0.79295205    -0.51800
C398        C  0.99450260  0.34618724  0.87427504     0.70200
O399        O  0.97013776  0.38830412  0.87909132    -0.46700
C400        C  0.83737359  0.35589541  0.94694834     0.74900
O401        O  0.92851520  0.43011257  0.83175239    -0.58500
O402        O  0.82868904  0.32436062  0.91077795    -0.48600
O403        O  0.84702259  0.42787779  0.84304181    -0.55000
C404        C  0.86577938  0.32041951  0.77138340     0.85100
O405        O  0.96586869  0.30627192  0.86804291    -0.56800
O406        O  0.87751154  0.38275456  0.94119593    -0.60100
In407      In  0.15270001  0.36253906  0.85644405     1.36900
C408        C  0.15467725  0.46282421  0.84032669     0.77600
O409        O  0.07354302  0.39180402  0.86897469    -0.60900
O410        O  0.08183701  0.30926684  0.86673715    -0.51800
C411        C  0.18716525  0.32410363  0.76942955     0.70200
O412        O  0.20816841  0.36200286  0.79164173    -0.46700
C413        C  0.20408846  0.35915612  0.94417920     0.74900
O414        O  0.18438136  0.44000147  0.87116110    -0.58500
O415        O  0.15655623  0.34753694  0.94072245    -0.48600
O416        O  0.12366302  0.43407934  0.81527082    -0.55000
C417        C  0.05156708  0.34806010  0.87096913     0.85100
O418        O  0.15510178  0.29953749  0.79595083    -0.56800
O419        O  0.22630024  0.36236847  0.90219415    -0.60100
In420      In  0.14888417  0.61960662  0.85470946     1.36900
C421        C  0.15427962  0.51873541  0.83921997     0.77600
O422        O  0.20443319  0.62191476  0.79000509    -0.60900
O423        O  0.14533380  0.67877383  0.79059292    -0.51800
C424        C  0.04636865  0.62725971  0.87172607     0.70200
O425        O  0.07117543  0.58528284  0.86721106    -0.46700
C426        C  0.20483225  0.62408378  0.94156849     0.74900
O427        O  0.12093106  0.54571306  0.81554131    -0.58500
O428        O  0.22414055  0.61863908  0.89847492    -0.48600
O429        O  0.18511455  0.54358541  0.86755282    -0.55000
C430        C  0.17976905  0.65556773  0.76543732     0.85100
O431        O  0.07430286  0.66792191  0.86892931    -0.56800
O432        O  0.15794106  0.63872049  0.93976820    -0.60100
C433        C  0.26875232  0.28181927  0.97909164    -0.12300
C434        C  0.27972175  0.33246174  0.99702018     0.04700
C435        C  0.32765230  0.33879452  0.02446738    -0.07600
C436        C  0.36706721  0.30013554  0.01937263    -0.08300
C437        C  0.35737453  0.25229756  0.99371976    -0.02900
C438        C  0.30517285  0.24262724  0.97768306     0.03900
N439        N  0.28637045  0.19247274  0.96194111     0.66400
H440        H  0.22970827  0.27099322  0.96703971     0.15300
H441        H  0.40421489  0.30591755  0.03857663     0.15100
N442        N  0.33559215  0.38070814  0.06044049     0.74100
O443        O  0.26608350  0.16358438  0.99470753    -0.39300
O444        O  0.27376312  0.18564422  0.91577430    -0.39200
O445        O  0.29830149  0.39753314  0.08642956    -0.39900
O446        O  0.38105204  0.39622113  0.07136247    -0.40000
C447        C  0.28627428  0.51796913  0.99405668    -0.12300
C448        C  0.23942005  0.54696884  0.98954820     0.04700
C449        C  0.19316134  0.51618168  0.98708261    -0.07600
C450        C  0.19484291  0.46195943  0.98894434    -0.08300
C451        C  0.24096809  0.43242422  0.99192876    -0.02900
C452        C  0.28766787  0.46227468  0.98816451     0.03900
N453        N  0.33456960  0.43941181  0.96931273     0.66400
H454        H  0.32160098  0.53771646  0.00118672     0.15300
H455        H  0.15792280  0.44282321  0.98525576     0.15100
N456        N  0.14204057  0.53807541  0.98574834     0.74100
O457        O  0.33170794  0.40836457  0.93197288    -0.39300
O458        O  0.37811528  0.45942258  0.98064239    -0.39200
O459        O  0.11552534  0.53308533  0.94533219    -0.39900
O460        O  0.11755298  0.53823778  0.02663617    -0.40000
C461        C  0.27375148  0.69692506  0.00301128    -0.12300
C462        C  0.28462072  0.64487873  0.98963463     0.04700
C463        C  0.33503988  0.63589825  0.96873352    -0.07600
C464        C  0.37452851  0.67409160  0.97486750    -0.08300
C465        C  0.36334446  0.72480351  0.99216757    -0.02900
C466        C  0.31028209  0.73634037  0.00215354     0.03900
N467        N  0.29092637  0.78834333  0.00870594     0.66400
H468        H  0.23436260  0.70875523  0.01128829     0.15300
H469        H  0.41266446  0.66580715  0.96016490     0.15100
N470        N  0.34452788  0.59580119  0.93198353     0.74100
O471        O  0.27324523  0.81178540  0.97009747    -0.39300
O472        O  0.27392686  0.80147336  0.05164296    -0.39200
O473        O  0.32924079  0.60354128  0.88682889    -0.39900
O474        O  0.38317833  0.56615349  0.93896358    -0.40000
C475        C  0.54302839  0.23426473  0.95430099    -0.12300
C476        C  0.57131612  0.22638793  0.00011728     0.04700
C477        C  0.54117795  0.23033595  0.04528248    -0.07600
C478        C  0.48589470  0.22692584  0.04203176    -0.08300
C479        C  0.45759884  0.22631352  0.99523223    -0.02900
C480        C  0.48810718  0.23712951  0.95177787     0.03900
N481        N  0.46540685  0.25647619  0.90573265     0.66400
H482        H  0.56348499  0.24040576  0.91952101     0.15300
H483        H  0.46442439  0.22587078  0.07695434     0.15100
N484        N  0.56516554  0.24146761  0.09414529     0.74100
O485        O  0.45653677  0.30471476  0.90298128    -0.39300
O486        O  0.47273270  0.23153152  0.86501835    -0.39200
O487        O  0.60629121  0.26818110  0.09684412    -0.39900
O488        O  0.53979053  0.23525931  0.13426374    -0.40000
C489        C  0.72391120  0.23631869  0.99698272    -0.12300
C490        C  0.67179399  0.25312014  0.99901786     0.04700
C491        C  0.66256920  0.30767112  0.99753416    -0.07600
C492        C  0.70477273  0.34237324  0.99687672    -0.08300
C493        C  0.75674038  0.32507150  0.99293199    -0.02900
C494        C  0.76544426  0.27035169  0.99254873     0.03900
N495        N  0.81610028  0.24746017  0.98821003     0.66400
H496        H  0.73275741  0.19509513  0.99732153     0.15300
H497        H  0.69578758  0.38341266  0.99761224     0.15100
N498        N  0.61161183  0.32961110  0.99316574     0.74100
O499        O  0.83829265  0.23044216  0.02792595    -0.39300
O500        O  0.82773052  0.22670735  0.94631879    -0.39200
O501        O  0.59369425  0.35410801  0.03070083    -0.39900
O502        O  0.59446912  0.34075347  0.94931948    -0.40000
C503        C  0.54967276  0.74054819  0.03466500    -0.12300
C504        C  0.57806198  0.74843320  0.98979755     0.04700
C505        C  0.54752577  0.74442887  0.94367057    -0.07600
C506        C  0.49223991  0.74936950  0.94496290    -0.08300
C507        C  0.46414347  0.75054509  0.99078967    -0.02900
C508        C  0.49449065  0.73922688  0.03523195     0.03900
N509        N  0.47060156  0.72310424  0.08104248     0.66400
H510        H  0.57001536  0.73418515  0.07014259     0.15300
H511        H  0.47063406  0.75058281  0.90940502     0.15100
N512        N  0.57089087  0.73075201  0.89598034     0.74100
O513        O  0.45907500  0.67563415  0.08548890    -0.39300
O514        O  0.47817953  0.74974833  0.12086147    -0.39200
O515        O  0.60990447  0.70094786  0.89554738    -0.39900
O516        O  0.54570507  0.73703717  0.85484730    -0.40000
C517        C  0.77959978  0.45103867  0.03945041    -0.12300
C518        C  0.78459263  0.42361711  0.99294186     0.04700
C519        C  0.77315415  0.45345539  0.94823793    -0.07600
C520        C  0.77580019  0.50861719  0.95084616    -0.08300
C521        C  0.77988382  0.53634623  0.99722669    -0.02900
C522        C  0.77311794  0.50596376  0.04191460     0.03900
N523        N  0.75626282  0.52923724  0.08884970     0.66400
H524        H  0.77896502  0.42906920  0.07428827     0.15300
H525        H  0.77269634  0.53067483  0.91617245     0.15100
N526        N  0.75489917  0.42980285  0.90125770     0.74100
O527        O  0.75893580  0.50369295  0.12964995    -0.39300
O528        O  0.72811241  0.56947787  0.08783630    -0.39200
O529        O  0.75099355  0.45695684  0.86151695    -0.39900
O530        O  0.73075686  0.38714028  0.90185366    -0.40000
C531        C  0.76761210  0.68862336  0.99996734    -0.12300
C532        C  0.75232462  0.63616976  0.99659032     0.04700
C533        C  0.69794246  0.62616907  0.99008337    -0.07600
C534        C  0.66196709  0.66766080  0.99041912    -0.08300
C535        C  0.67794602  0.72005625  0.99317640    -0.02900
C536        C  0.73234280  0.72970847  0.99811537     0.03900
N537        N  0.75342629  0.78109137  0.00306331     0.66400
H538        H  0.80850291  0.69832092  0.00345575     0.15300
H539        H  0.62116600  0.65820700  0.98651725     0.15100
N540        N  0.67770322  0.57553055  0.97877986     0.74100
O541        O  0.76633926  0.79720563  0.04691851    -0.39300
O542        O  0.77553033  0.80072267  0.96530728    -0.39200
O543        O  0.64918237  0.55385637  0.01091938    -0.39900
O544        O  0.67250506  0.56237632  0.93268108    -0.40000
C545        C  0.20834305  0.84263181  0.49249019    -0.12300
C546        C  0.25956310  0.82579311  0.48451541     0.04700
C547        C  0.26807135  0.77085643  0.48382720    -0.07600
C548        C  0.22678755  0.73646037  0.48884904    -0.08300
C549        C  0.17469279  0.75285100  0.49226625    -0.02900
C550        C  0.16582520  0.80770530  0.49287003     0.03900
N551        N  0.11495941  0.83003962  0.49187890     0.66400
H552        H  0.20080574  0.88304320  0.49980575     0.15300
H553        H  0.23596015  0.69531117  0.48926234     0.15100
N554        N  0.31904417  0.74831564  0.48197184     0.74100
O555        O  0.10234123  0.85934971  0.52826771    -0.39300
O556        O  0.09352254  0.83764617  0.44905671    -0.39200
O557        O  0.33981843  0.73254755  0.52290807    -0.39900
O558        O  0.33350998  0.72803499  0.44076934    -0.40000
C559        C  0.99000937  0.73083000  0.53894148    -0.12300
C560        C  0.95952358  0.72253722  0.49434823     0.04700
C561        C  0.98762695  0.72676815  0.44786689    -0.07600
C562        C  0.04308219  0.72460929  0.44862626    -0.08300
C563        C  0.07375827  0.72440802  0.49390017    -0.02900
C564        C  0.04510203  0.73367071  0.53911864     0.03900
N565        N  0.07025804  0.74728640  0.58620483     0.66400
H566        H  0.97143358  0.73581417  0.57487710     0.15300
H567        H  0.06227374  0.72503289  0.41275593     0.15100
N568        N  0.96160332  0.73651639  0.39977655     0.74100
O569        O  0.07341712  0.79482782  0.59790120    -0.39300
O570        O  0.06816768  0.71528881  0.62201011    -0.39200
O571        O  0.92093582  0.76394034  0.39818673    -0.39900
O572        O  0.98545374  0.72928281  0.35880715    -0.40000
C573        C  0.87245618  0.80144325  0.48920350    -0.12300
C574        C  0.85926972  0.74838761  0.49675254     0.04700
C575        C  0.80595433  0.73691351  0.50374787    -0.07600
C576        C  0.76946348  0.77643843  0.50481946    -0.08300
C577        C  0.78177105  0.82945668  0.49858449    -0.02900
C578        C  0.83400024  0.84124298  0.48578964     0.03900
N579        N  0.84771717  0.88999749  0.46303311     0.66400
H580        H  0.91248889  0.81185410  0.48236262     0.15300
H581        H  0.72934429  0.76461488  0.50943984     0.15100
N582        N  0.78710434  0.68517733  0.51148348     0.74100
O583        O  0.89254232  0.90884154  0.47067195    -0.39300
O584        O  0.82033300  0.90768905  0.42677525    -0.39200
O585        O  0.77619202  0.67182207  0.55611638    -0.39900
O586        O  0.76441677  0.66210675  0.47487106    -0.40000
C587        C  0.77403271  0.01528359  0.52380424    -0.12300
C588        C  0.73124142  0.04220712  0.50133097     0.04700
C589        C  0.68855426  0.00953762  0.48677992    -0.07600
C590        C  0.69466455  0.95572111  0.48161456    -0.08300
C591        C  0.73898950  0.92801859  0.49875399    -0.02900
C592        C  0.77624918  0.95946538  0.52626099     0.03900
N593        N  0.80997313  0.93725767  0.56414399     0.66400
H594        H  0.80311573  0.03741974  0.54475101     0.15300
H595        H  0.66042373  0.93468210  0.46900997     0.15100
N596        N  0.63591127  0.02787177  0.48602946     0.74100
O597        O  0.85816272  0.94606404  0.56229490    -0.39300
O598        O  0.79093472  0.92719132  0.60681581    -0.39200
O599        O  0.60921077  0.02267277  0.44568819    -0.39900
O600        O  0.61203796  0.02801446  0.52747524    -0.40000
C601        C  0.80807300  0.22705437  0.51643781    -0.12300
C602        C  0.85897917  0.21190856  0.50325744     0.04700
C603        C  0.86488848  0.15947540  0.48629504    -0.07600
C604        C  0.82238616  0.12417418  0.48854149    -0.08300
C605        C  0.77299885  0.13944036  0.50623070    -0.02900
C606        C  0.76660156  0.19295322  0.51877420     0.03900
N607        N  0.71751729  0.21461017  0.53318381     0.66400
H608        H  0.79900058  0.26769088  0.52323218     0.15300
H609        H  0.82731367  0.08571431  0.47247717     0.15100
N610        N  0.91003659  0.14265601  0.45994789     0.74100
O611        O  0.71050283  0.22805445  0.57877964    -0.39300
O612        O  0.68312579  0.22483544  0.49989482    -0.39200
O613        O  0.93369846  0.10262415  0.47558931    -0.39900
O614        O  0.91374774  0.15452900  0.41372227    -0.40000
C615        C  0.98598174  0.29411404  0.47295888    -0.12300
C616        C  0.95944682  0.25110484  0.49373755     0.04700
C617        C  0.99277895  0.21695989  0.52252720    -0.07600
C618        C  0.04848367  0.22101123  0.52001331    -0.08300
C619        C  0.07382957  0.26079648  0.49291965    -0.02900
C620        C  0.03973746  0.30195225  0.47700857     0.03900
N621        N  0.05553035  0.35561901  0.47786078     0.66400
H622        H  0.96420345  0.32754114  0.46002557     0.15300
H623        H  0.07201922  0.19591693  0.54376096     0.15100
N624        N  0.97234277  0.18333827  0.56027098     0.74100
O625        O  0.05593738  0.38066215  0.43696738    -0.39300
O626        O  0.04703995  0.38133713  0.51782738    -0.39200
O627        O  0.98501787  0.13587708  0.55948716    -0.39900
O628        O  0.95966463  0.20330384  0.60218118    -0.40000
C629        C  0.26076264  0.01319222  0.46167647    -0.12300
C630        C  0.30066857  0.04182498  0.48740509     0.04700
C631        C  0.34438710  0.01012889  0.50180043    -0.07600
C632        C  0.34063767  0.95569711  0.50504235    -0.08300
C633        C  0.29819138  0.92606126  0.48598341    -0.02900
C634        C  0.26041347  0.95708218  0.45842590     0.03900
N635        N  0.22593113  0.93434268  0.42124864     0.66400
H636        H  0.23268311  0.03397490  0.43865429     0.15300
H637        H  0.37563501  0.93605843  0.51754915     0.15100
N638        N  0.39633304  0.03032096  0.50359353     0.74100
O639        O  0.17753524  0.93814426  0.42768081    -0.39300
O640        O  0.24187268  0.92958419  0.37640842    -0.39200
O641        O  0.42321409  0.02431323  0.54363839    -0.39900
O642        O  0.42022351  0.03286620  0.46225303    -0.40000
C643        C  0.22625438  0.23250444  0.49075377    -0.12300
C644        C  0.17332398  0.21849318  0.48943559     0.04700
C645        C  0.16285274  0.16385780  0.48492523    -0.07600
C646        C  0.20431588  0.12692389  0.48826414    -0.08300
C647        C  0.25719236  0.14217480  0.48933983    -0.02900
C648        C  0.26677364  0.19687661  0.49069249     0.03900
N649        N  0.31819723  0.21826468  0.49322667     0.66400
H650        H  0.23704124  0.27328302  0.49178671     0.15300
H651        H  0.19407661  0.08649501  0.48890993     0.15100
N652        N  0.11298883  0.14431220  0.46948751     0.74100
O653        O  0.33723058  0.23628324  0.45313291    -0.39300
O654        O  0.33509189  0.23537075  0.53546962    -0.39200
O655        O  0.10234493  0.14241115  0.42250448    -0.39900
O656        O  0.09012352  0.11302354  0.49835284    -0.40000
loop_ 
_geom_bond_atom_site_label_1 
_geom_bond_atom_site_label_2 
_geom_bond_distance 
_geom_bond_site_symmetry_2 
_ccdc_geom_bond_type 
In1           O3   2.204       .  S
In1           O4   2.294       .  S
In1          O12   2.275       .  S
In1           O6   2.241       .  S
In1           O8   2.205       .  S
In1           O9   2.285       .  S
In1          O10   2.248       .  S
In1          O13   2.223       .  S
C2            O8   1.253       .  A
C2           O10   1.259       .  A
C2           C41   1.436   1_545  S
O3           C11   1.259       .  A
O4           C11   1.270       .  A
C5           O12   1.261       .  A
C5            O6   1.250       .  A
C5           C83   1.465       .  S
C7            O9   1.261       .  A
C7           O13   1.257       .  A
C7          C313   1.521       .  S
C11          C18   1.471       .  S
In14         O16   2.248       .  S
In14         O17   2.271       .  S
In14         O25   2.292       .  S
In14         O19   2.202       .  S
In14         O21   2.255       .  S
In14         O22   2.238       .  S
In14         O23   2.209       .  S
In14         O26   2.290       .  S
C15          O21   1.259       .  A
C15          O23   1.253       .  A
C15          C28   1.441   1_545  S
O16          C24   1.250       .  A
O17          C24   1.260       .  A
C18          O25   1.271       .  A
C18          O19   1.260       .  A
C20          O22   1.258       .  A
C20          O26   1.260       .  A
C20         C316   1.531       .  S
C24         C102   1.467       .  S
In27         O29   2.210       .  S
In27         O30   2.307       .  S
In27         O38   2.279       .  S
In27         O32   2.247       .  S
In27         O34   2.206       .  S
In27         O35   2.284       .  S
In27         O36   2.253       .  S
In27         O39   2.241       .  S
C28          O34   1.253       .  A
C28          O36   1.260       .  A
O29          C37   1.259       .  A
O30          C37   1.270       .  A
C31          O38   1.263       .  A
C31          O32   1.250       .  A
C31          C57   1.468       .  S
C33          O35   1.261       .  A
C33          O39   1.257       .  A
C33         C318   1.539       .  S
C37          C44   1.477       .  S
In40         O42   2.241       .  S
In40         O43   2.261       .  S
In40         O51   2.312       .  S
In40         O45   2.204       .  S
In40         O47   2.240       .  S
In40         O48   2.271       .  S
In40         O49   2.196       .  S
In40         O52   2.234       .  S
C41          O47   1.259       .  A
C41          O49   1.254       .  A
O42          C50   1.254       .  A
O43          C50   1.263       .  A
C44          O51   1.270       .  A
C44          O45   1.257       .  A
C46          O48   1.266       .  A
C46          O52   1.257       .  A
C46         C319   1.529       .  S
C50          C76   1.462       .  S
In53         O55   2.194       .  S
In53         O56   2.305       .  S
In53         O64   2.255       .  S
In53         O58   2.230       .  S
In53         O60   2.216       .  S
In53         O61   2.261       .  S
In53         O62   2.206       .  S
In53         O65   2.256       .  S
C54          O60   1.255       .  A
C54          O62   1.254       .  A
C54          C67   1.427       .  S
O55          C63   1.257       .  A
O56          C63   1.271       .  A
C57          O64   1.269       .  A
C57          O58   1.257       .  A
C59          O61   1.262       .  A
C59          O65   1.259       .  A
C59         C322   1.538   1_554  S
C63          C96   1.473   1_565  S
In66         O68   2.218       .  S
In66         O69   2.245       .  S
In66         O77   2.305       .  S
In66         O71   2.180       .  S
In66         O73   2.198       .  S
In66         O74   2.252       .  S
In66         O75   2.211       .  S
In66         O78   2.234       .  S
C67          O73   1.254       .  A
C67          O75   1.256       .  A
O68          C76   1.260       .  A
O69          C76   1.269       .  A
C70          O77   1.269       .  A
C70          O71   1.256       .  A
C70          C89   1.467   1_565  S
C72          O74   1.266       .  A
C72          O78   1.254       .  A
C72         C326   1.527   1_554  S
In79         O81   2.186       .  S
In79         O82   2.306       .  S
In79         O90   2.247       .  S
In79         O84   2.232       .  S
In79         O86   2.223       .  S
In79         O87   2.219       .  S
In79         O88   2.209       .  S
In79         O91   2.281       .  S
C80          O86   1.258       .  A
C80          O88   1.256       .  A
C80          C93   1.435       .  S
O81          C89   1.255       .  A
O82          C89   1.269       .  A
C83          O90   1.268       .  A
C83          O84   1.259       .  A
C85          O87   1.253       .  A
C85          O91   1.269       .  A
C85         C328   1.531   1_554  S
In92         O94   2.234       .  S
In92         O95   2.255       .  S
In92        O103   2.313       .  S
In92         O97   2.197       .  S
In92         O99   2.208       .  S
In92        O100   2.286       .  S
In92        O101   2.217       .  S
In92        O104   2.235       .  S
C93          O99   1.257       .  A
C93         O101   1.258       .  A
O94         C102   1.259       .  A
O95         C102   1.268       .  A
C96         O103   1.269       .  A
C96          O97   1.255       .  A
C98         O100   1.268       .  A
C98         O104   1.252       .  A
C98         C323   1.538   1_554  S
In105       O107   2.201       .  S
In105       O108   2.300       .  S
In105       O116   2.270       .  S
In105       O110   2.249       .  S
In105       O112   2.215       .  S
In105       O113   2.273       .  S
In105       O114   2.271       .  S
In105       O117   2.261       .  S
C106        O112   1.251       .  A
C106        O114   1.258       .  A
C106        C132   1.450   1_655  S
O107        C115   1.265       .  A
O108        C115   1.271       .  A
C109        O116   1.262       .  A
C109        O110   1.251       .  A
C109        C161   1.467       .  S
C111        O113   1.257       .  A
C111        O117   1.256       .  A
C111        C315   1.538       .  S
C115        C122   1.477       .  S
In118       O120   2.168       .  S
In118       O121   2.322       .  S
In118       O129   2.320       .  S
In118       O123   2.202       .  S
In118       O125   2.200       .  S
In118       O126   2.317       .  S
In118       O127   2.209       .  S
In118       O130   2.208       .  S
C119        O125   1.255       .  A
C119        O127   1.255       .  A
C119        C145   1.422   1_655  S
O120        C128   1.257       .  A
O121        C128   1.271       .  A
C122        O129   1.268       .  A
C122        O123   1.250       .  A
C124        O126   1.271       .  A
C124        O130   1.250       .  A
C124        C317   1.537       .  S
C128        C180   1.467       .  S
In131       O133   2.231       .  S
In131       O134   2.266       .  S
In131       O142   2.315       .  S
In131       O136   2.212       .  S
In131       O138   2.271       .  S
In131       O139   2.243       .  S
In131       O140   2.228       .  S
In131       O143   2.292       .  S
C132        O138   1.257       .  A
C132        O140   1.253       .  A
O133        C141   1.247       .  A
O134        C141   1.259       .  A
C135        O142   1.271       .  A
C135        O136   1.262       .  A
C135        C154   1.483       .  S
C137        O139   1.254       .  A
C137        O143   1.263       .  A
C137        C314   1.533       .  S
C141        C206   1.454       .  S
In144       O146   2.211       .  S
In144       O147   2.319       .  S
In144       O155   2.266       .  S
In144       O149   2.231       .  S
In144       O151   2.212       .  S
In144       O152   2.260       .  S
In144       O153   2.193       .  S
In144       O156   2.271       .  S
C145        O151   1.257       .  A
C145        O153   1.254       .  A
O146        C154   1.258       .  A
O147        C154   1.274       .  A
C148        O155   1.269       .  A
C148        O149   1.255       .  A
C148        C187   1.467       .  S
C150        O152   1.263       .  A
C150        O156   1.258       .  A
C150        C320   1.551       .  S
In157       O159   2.200       .  S
In157       O160   2.301       .  S
In157       O168   2.264       .  S
In157       O162   2.231       .  S
In157       O164   2.213       .  S
In157       O165   2.236       .  S
In157       O166   2.201       .  S
In157       O169   2.255       .  S
C158        O164   1.257       .  A
C158        O166   1.253       .  A
C158        C171   1.427       .  S
O159        C167   1.258       .  A
O160        C167   1.270       .  A
C161        O168   1.268       .  A
C161        O162   1.256       .  A
C163        O165   1.254       .  A
C163        O169   1.268       .  A
C163        C324   1.530   1_554  S
C167        C200   1.473   1_655  S
In170       O172   2.161       .  S
In170       O173   2.320       .  S
In170       O181   2.312       .  S
In170       O175   2.200       .  S
In170       O177   2.206       .  S
In170       O178   2.304       .  S
In170       O179   2.204       .  S
In170       O182   2.214       .  S
C171        O177   1.258       .  A
C171        O179   1.257       .  A
O172        C180   1.255       .  A
O173        C180   1.273       .  A
C174        O181   1.265       .  A
C174        O175   1.252       .  A
C174        C193   1.473   1_655  S
C176        O178   1.275       .  A
C176        O182   1.253       .  A
C176        C321   1.540   1_554  S
In183       O185   2.197       .  S
In183       O186   2.313       .  S
In183       O194   2.282       .  S
In183       O188   2.235       .  S
In183       O190   2.217       .  S
In183       O191   2.287       .  S
In183       O192   2.257       .  S
In183       O195   2.255       .  S
C184        O190   1.252       .  A
C184        O192   1.257       .  A
C184        C197   1.443       .  S
O185        C193   1.258       .  A
O186        C193   1.269       .  A
C187        O194   1.266       .  A
C187        O188   1.250       .  A
C189        O191   1.257       .  A
C189        O195   1.254       .  A
C189        C325   1.539   1_554  S
In196       O198   2.221       .  S
In196       O199   2.246       .  S
In196       O207   2.302       .  S
In196       O201   2.201       .  S
In196       O203   2.241       .  S
In196       O204   2.265       .  S
In196       O205   2.217       .  S
In196       O208   2.212       .  S
C197        O203   1.256       .  A
C197        O205   1.256       .  A
O198        C206   1.255       .  A
O199        C206   1.265       .  A
C200        O207   1.270       .  A
C200        O201   1.259       .  A
C202        O204   1.267       .  A
C202        O208   1.256       .  A
C202        C327   1.541   1_554  S
In209       O211   2.195       .  S
In209       O212   2.298       .  S
In209       O220   2.275       .  S
In209       O214   2.244       .  S
In209       O216   2.210       .  S
In209       O217   2.275       .  S
In209       O218   2.248       .  S
In209       O221   2.240       .  S
C210        O216   1.253       .  A
C210        O218   1.259       .  A
C210        C236   1.440   1_565  S
O211        C219   1.262       .  A
O212        C219   1.271       .  A
C213        O220   1.261       .  A
C213        O214   1.250       .  A
C213        C265   1.466       .  S
C215        O217   1.260       .  A
C215        O221   1.258       .  A
C215        C319   1.534       .  S
C219        C226   1.472       .  S
In222       O224   2.236       .  S
In222       O225   2.267       .  S
In222       O233   2.311       .  S
In222       O227   2.191       .  S
In222       O229   2.240       .  S
In222       O230   2.260       .  S
In222       O231   2.176       .  S
In222       O234   2.243       .  S
C223        O229   1.258       .  A
C223        O231   1.253       .  A
C223        C249   1.428   1_565  S
O224        C232   1.254       .  A
O225        C232   1.265       .  A
C226        O233   1.271       .  A
C226        O227   1.255       .  A
C228        O230   1.266       .  A
C228        O234   1.257       .  A
C228        C318   1.538       .  S
C232        C284   1.466       .  S
In235       O237   2.244       .  S
In235       O238   2.277       .  S
In235       O246   2.306       .  S
In235       O240   2.204       .  S
In235       O242   2.245       .  S
In235       O243   2.232       .  S
In235       O244   2.213       .  S
In235       O247   2.293       .  S
C236        O242   1.259       .  A
C236        O244   1.255       .  A
O237        C245   1.249       .  A
O238        C245   1.261       .  A
C239        O246   1.270       .  A
C239        O240   1.257       .  A
C239        C258   1.472       .  S
C241        O243   1.256       .  A
C241        O247   1.261       .  A
C241        C313   1.529       .  S
C245        C310   1.465       .  S
In248       O250   2.206       .  S
In248       O251   2.301       .  S
In248       O259   2.280       .  S
In248       O253   2.240       .  S
In248       O255   2.179       .  S
In248       O256   2.286       .  S
In248       O257   2.247       .  S
In248       O260   2.215       .  S
C249        O255   1.251       .  A
C249        O257   1.261       .  A
O250        C258   1.259       .  A
O251        C258   1.269       .  A
C252        O259   1.263       .  A
C252        O253   1.249       .  A
C252        C291   1.465       .  S
C254        O256   1.262       .  A
C254        O260   1.256       .  A
C254        C316   1.519       .  S
In261       O263   2.197       .  S
In261       O264   2.307       .  S
In261       O272   2.252       .  S
In261       O266   2.235       .  S
In261       O268   2.225       .  S
In261       O269   2.227       .  S
In261       O270   2.204       .  S
In261       O273   2.284       .  S
C262        O268   1.259       .  A
C262        O270   1.256       .  A
C262        C275   1.435       .  S
O263        C271   1.256       .  A
O264        C271   1.269       .  A
C265        O272   1.268       .  A
C265        O266   1.259       .  A
C267        O269   1.252       .  A
C267        O273   1.268       .  A
C267        C326   1.534       .  S
C271        C304   1.471   1_565  S
In274       O276   2.234       .  S
In274       O277   2.249       .  S
In274       O285   2.310       .  S
In274       O279   2.193       .  S
In274       O281   2.209       .  S
In274       O282   2.291       .  S
In274       O283   2.223       .  S
In274       O286   2.228       .  S
C275        O281   1.256       .  A
C275        O283   1.257       .  A
O276        C284   1.259       .  A
O277        C284   1.268       .  A
C278        O285   1.270       .  A
C278        O279   1.255       .  A
C278        C297   1.472   1_565  S
C280        O282   1.267       .  A
C280        O286   1.253       .  A
C280        C322   1.532       .  S
In287       O289   2.192       .  S
In287       O290   2.305       .  S
In287       O298   2.252       .  S
In287       O292   2.229       .  S
In287       O294   2.211       .  S
In287       O295   2.255       .  S
In287       O296   2.211       .  S
In287       O299   2.253       .  S
C288        O294   1.254       .  A
C288        O296   1.255       .  A
C288        C301   1.429       .  S
O289        C297   1.258       .  A
O290        C297   1.270       .  A
C291        O298   1.269       .  A
C291        O292   1.257       .  A
C293        O295   1.262       .  A
C293        O299   1.260       .  A
C293        C323   1.542       .  S
In300       O302   2.225       .  S
In300       O303   2.252       .  S
In300       O311   2.301       .  S
In300       O305   2.193       .  S
In300       O307   2.209       .  S
In300       O308   2.254       .  S
In300       O309   2.212       .  S
In300       O312   2.248       .  S
C301        O307   1.254       .  A
C301        O309   1.255       .  A
O302        C310   1.258       .  A
O303        C310   1.269       .  A
C304        O311   1.270       .  A
C304        O305   1.258       .  A
C306        O308   1.259       .  A
C306        O312   1.261       .  A
C306        C328   1.535       .  S
C313        C630   1.608       .  S
C313        C647   1.570       .  S
C314        C335   1.538       .  S
C314        C619   1.593       .  S
C314        C644   1.578       .  S
C315        C374   1.539       .  S
C315        C602   1.562       .  S
C315        C616   1.598       .  S
C316        C588   1.587       .  S
C316        C605   1.555       .  S
C317        C361   1.550       .  S
C317        C560   1.602       .  S
C317        C574   1.553       .  S
C318        C577   1.553       .  S
C318        C591   1.595       .  S
C319        C546   1.554       .  S
C319        C633   1.615       .  S
C320        C348   1.540       .  S
C320        C549   1.558       .  S
C320        C563   1.600       .  S
C321        C387   1.547       .  S
C321        C521   1.585       .  S
C321        C532   1.557       .  S
C322        C504   1.604       .  S
C322        C535   1.550       .  S
C323        C476   1.592   1_556  S
C323        C490   1.547       .  S
C324        C400   1.528       .  S
C324        C493   1.548       .  S
C324        C518   1.592       .  S
C325        C426   1.532       .  S
C325        C448   1.590       .  S
C325        C462   1.566       .  S
C326        C465   1.548       .  S
C326        C507   1.599       .  S
C327        C413   1.525       .  S
C327        C434   1.556       .  S
C327        C451   1.595       .  S
C328        C437   1.548       .  S
C328        C479   1.598       .  S
In329       O331   2.188       .  S
In329       O332   2.311       .  S
In329       O340   2.260       .  S
In329       O334   2.219       .  S
In329       O336   2.220       .  S
In329       O337   2.226       .  S
In329       O338   2.204       .  S
In329       O341   2.269       .  S
C330        O336   1.255       .  A
C330        O338   1.254       .  A
C330        C369   1.430   1_455  S
O331        C339   1.260       .  A
O332        C339   1.272       .  A
C333        O340   1.268       .  A
C333        O334   1.254       .  A
C333        C411   1.461       .  S
C335        O337   1.251       .  A
C335        O341   1.266       .  A
C339        C346   1.476       .  S
In342       O344   2.252       .  S
In342       O345   2.232       .  S
In342       O353   2.325       .  S
In342       O347   2.193       .  S
In342       O349   2.208       .  S
In342       O350   2.302       .  S
In342       O351   2.218       .  S
In342       O354   2.233       .  S
C343        O349   1.257       .  A
C343        O351   1.257       .  A
C343        C356   1.431   1_455  S
O344        C352   1.269       .  A
O345        C352   1.258       .  A
C346        O353   1.270       .  A
C346        O347   1.253       .  A
C348        O350   1.270       .  A
C348        O354   1.253       .  A
C352        C430   1.466       .  S
In355       O357   2.204       .  S
In355       O358   2.303       .  S
In355       O366   2.260       .  S
In355       O360   2.226       .  S
In355       O362   2.217       .  S
In355       O363   2.245       .  S
In355       O364   2.210       .  S
In355       O367   2.285       .  S
C356        O362   1.256       .  A
C356        O364   1.254       .  A
O357        C365   1.258       .  A
O358        C365   1.271       .  A
C359        O366   1.268       .  A
C359        O360   1.257       .  A
C359        C385   1.467       .  S
C361        O363   1.263       .  A
C361        O367   1.260       .  A
C365        C372   1.475       .  S
In368       O370   2.213       .  S
In368       O371   2.250       .  S
In368       O379   2.305       .  S
In368       O373   2.202       .  S
In368       O375   2.202       .  S
In368       O376   2.245       .  S
In368       O377   2.214       .  S
In368       O380   2.246       .  S
C369        O375   1.256       .  A
C369        O377   1.256       .  A
O370        C378   1.256       .  A
O371        C378   1.267       .  A
C372        O379   1.271       .  A
C372        O373   1.258       .  A
C374        O376   1.263       .  A
C374        O380   1.257       .  A
C378        C404   1.455       .  S
In381       O383   2.216       .  S
In381       O384   2.321       .  S
In381       O392   2.261       .  S
In381       O386   2.250       .  S
In381       O388   2.213       .  S
In381       O389   2.253       .  S
In381       O390   2.225       .  S
In381       O393   2.293       .  S
C382        O388   1.257       .  A
C382        O390   1.256       .  A
C382        C395   1.435       .  S
O383        C391   1.257       .  A
O384        C391   1.269       .  A
C385        O392   1.264       .  A
C385        O386   1.255       .  A
C387        O389   1.255       .  A
C387        O393   1.267       .  A
C391        C424   1.482   1_655  S
In394       O396   2.244       .  S
In394       O397   2.231       .  S
In394       O405   2.309       .  S
In394       O399   2.194       .  S
In394       O401   2.234       .  S
In394       O402   2.279       .  S
In394       O403   2.199       .  S
In394       O406   2.237       .  S
C395        O401   1.255       .  A
C395        O403   1.253       .  A
O396        C404   1.264       .  A
O397        C404   1.254       .  A
C398        O405   1.271       .  A
C398        O399   1.256       .  A
C398        C417   1.472   1_655  S
C400        O402   1.263       .  A
C400        O406   1.254       .  A
In407       O409   2.199       .  S
In407       O410   2.300       .  S
In407       O418   2.264       .  S
In407       O412   2.243       .  S
In407       O414   2.180       .  S
In407       O415   2.254       .  S
In407       O416   2.259       .  S
In407       O419   2.224       .  S
C408        O414   1.252       .  A
C408        O416   1.261       .  A
C408        C421   1.437       .  S
O409        C417   1.260       .  A
O410        C417   1.269       .  A
C411        O418   1.262       .  A
C411        O412   1.250       .  A
C413        O415   1.260       .  A
C413        O419   1.256       .  A
In420       O422   2.244       .  S
In420       O423   2.279       .  S
In420       O431   2.318       .  S
In420       O425   2.215       .  S
In420       O427   2.265       .  S
In420       O428   2.233       .  S
In420       O429   2.188       .  S
In420       O432   2.296       .  S
C421        O427   1.260       .  A
C421        O429   1.251       .  A
O422        C430   1.248       .  A
O423        C430   1.262       .  A
C424        O431   1.271       .  A
C424        O425   1.258       .  A
C426        O428   1.253       .  A
C426        O432   1.263       .  A
C433        C434   1.408       .  A
C433        C438   1.375       .  A
C433        H440   1.083       .  S
C434        C435   1.426   1_556  A
C435        C436   1.426       .  A
C435        N442   1.441       .  S
C436        C437   1.418   1_554  A
C436        H441   1.082       .  S
C437        C438   1.421       .  A
C438        N439   1.432       .  S
N439        O443   1.262       .  A
N439        O444   1.263       .  A
N442        O446   1.263       .  A
N442        O445   1.262       .  A
C447        C448   1.419       .  A
C447        C452   1.438       .  A
C447        H454   1.054   1_556  S
C448        C449   1.429       .  A
C449        C450   1.395       .  A
C449        N456   1.429       .  S
C450        C451   1.408       .  A
C450        H455   1.072       .  S
C451        C452   1.430       .  A
C452        N453   1.436       .  S
N453        O457   1.263       .  A
N453        O458   1.262       .  A
N456        O460   1.257   1_556  A
N456        O459   1.259       .  A
C461        C462   1.409   1_554  A
C461        C466   1.382       .  A
C461        H468   1.083       .  S
C462        C463   1.435       .  A
C463        C464   1.419       .  A
C463        N470   1.432       .  S
C464        C465   1.408       .  A
C464        H469   1.081       .  S
C465        C466   1.424   1_556  A
C466        N467   1.435       .  S
N467        O471   1.262   1_554  A
N467        O472   1.263       .  A
N470        O474   1.263       .  A
N470        O473   1.262       .  A
C475        C476   1.412   1_556  A
C475        C480   1.414       .  A
C475        H482   1.077       .  S
C476        C477   1.434       .  A
C477        C478   1.425       .  A
C477        N484   1.443       .  S
C478        C479   1.419   1_554  A
C478        H483   1.081       .  S
C479        C480   1.428       .  A
C480        N481   1.427       .  S
N481        O485   1.262       .  A
N481        O486   1.262       .  A
N484        O488   1.262       .  A
N484        O487   1.262       .  A
C489        C490   1.409       .  A
C489        C494   1.388       .  A
C489        H496   1.083       .  S
C490        C491   1.422       .  A
C491        C492   1.405       .  A
C491        N498   1.429       .  S
C492        C493   1.413       .  A
C492        H497   1.079       .  S
C493        C494   1.423       .  A
C494        N495   1.434       .  S
N495        O499   1.262   1_556  A
N495        O500   1.262       .  A
N498        O502   1.262       .  A
N498        O501   1.262   1_556  A
C503        C504   1.415   1_554  A
C503        C508   1.419       .  A
C503        H510   1.075       .  S
C504        C505   1.437       .  A
C505        C506   1.428       .  A
C505        N512   1.443       .  S
C506        C507   1.417       .  A
C506        H511   1.080       .  S
C507        C508   1.425   1_556  A
C508        N509   1.427       .  S
N509        O513   1.262       .  A
N509        O514   1.260       .  A
N512        O516   1.262       .  A
N512        O515   1.261       .  A
C517        C518   1.416   1_554  A
C517        C522   1.422       .  A
C517        H524   1.080       .  S
C518        C519   1.434       .  A
C519        C520   1.420       .  A
C519        N526   1.445       .  S
C520        C521   1.412       .  A
C520        H525   1.079       .  S
C521        C522   1.429   1_556  A
C522        N523   1.443       .  S
N523        O527   1.263       .  A
N523        O528   1.261       .  A
N526        O530   1.260       .  A
N526        O529   1.263       .  A
C531        C532   1.406       .  A
C531        C536   1.391       .  A
C531        H538   1.083   1_556  S
C532        C533   1.429       .  A
C533        C534   1.411       .  A
C533        N540   1.429       .  S
C534        C535   1.408       .  A
C534        H539   1.080       .  S
C535        C536   1.424       .  A
C536        N537   1.431   1_556  S
N537        O541   1.262       .  A
N537        O542   1.262   1_554  A
N540        O544   1.262       .  A
N540        O543   1.262   1_556  A
C545        C546   1.405       .  A
C545        C550   1.415       .  A
C545        H552   1.073       .  S
C546        C547   1.428       .  A
C547        C548   1.390       .  A
C547        N554   1.434       .  S
C548        C549   1.408       .  A
C548        H553   1.083       .  S
C549        C550   1.427       .  A
C550        N551   1.427       .  S
N551        O555   1.261       .  A
N551        O556   1.262       .  A
N554        O558   1.262       .  A
N554        O557   1.263       .  A
C559        C560   1.414       .  A
C559        C564   1.418   1_655  A
C559        H566   1.074       .  S
C560        C561   1.437       .  A
C561        C562   1.426   1_655  A
C561        N568   1.444       .  S
C562        C563   1.417       .  A
C562        H567   1.073       .  S
C563        C564   1.430       .  A
C564        N565   1.429       .  S
N565        O569   1.260       .  A
N565        O570   1.256       .  A
N568        O572   1.263       .  A
N568        O571   1.260       .  A
C573        C574   1.421       .  A
C573        C578   1.424       .  A
C573        H580   1.082       .  S
C574        C575   1.418       .  A
C575        C576   1.382       .  A
C575        N582   1.432       .  S
C576        C577   1.410       .  A
C576        H581   1.085       .  S
C577        C578   1.424       .  A
C578        N579   1.439       .  S
N579        O583   1.262       .  A
N579        O584   1.262       .  A
N582        O586   1.262       .  A
N582        O585   1.263       .  A
C587        C588   1.421       .  A
C587        C592   1.437   1_545  A
C587        H594   1.081       .  S
C588        C589   1.427       .  A
C589        C590   1.397   1_545  A
C589        N596   1.432       .  S
C590        C591   1.411       .  A
C590        H595   1.079       .  S
C591        C592   1.436       .  A
C592        N593   1.430       .  S
N593        O597   1.261       .  A
N593        O598   1.262       .  A
N596        O600   1.261       .  A
N596        O599   1.260       .  A
C601        C602   1.414       .  A
C601        C606   1.383       .  A
C601        H608   1.084       .  S
C602        C603   1.425       .  A
C603        C604   1.423       .  A
C603        N610   1.428       .  S
C604        C605   1.415       .  A
C604        H609   1.080       .  S
C605        C606   1.422       .  A
C606        N607   1.435       .  S
N607        O611   1.263       .  A
N607        O612   1.262       .  A
N610        O614   1.262       .  A
N610        O613   1.262       .  A
C615        C616   1.417       .  A
C615        C620   1.399   1_655  A
C615        H622   1.078       .  S
C616        C617   1.436       .  A
C617        C618   1.439   1_655  A
C617        N624   1.428       .  S
C618        C619   1.416       .  A
C618        H623   1.078       .  S
C619        C620   1.432       .  A
C620        N621   1.437       .  S
N621        O625   1.258       .  A
N621        O626   1.261       .  A
N624        O628   1.262       .  A
N624        O627   1.262       .  A
C629        C630   1.422       .  A
C629        C634   1.443   1_545  A
C629        H636   1.077       .  S
C630        C631   1.434       .  A
C631        C632   1.405   1_545  A
C631        N638   1.433       .  S
C632        C633   1.414       .  A
C632        H637   1.078       .  S
C633        C634   1.444       .  A
C634        N635   1.430       .  S
N635        O639   1.262       .  A
N635        O640   1.262       .  A
N638        O642   1.261       .  A
N638        O641   1.260       .  A
C643        C644   1.408       .  A
C643        C648   1.386       .  A
C643        H650   1.084       .  S
C644        C645   1.433       .  A
C645        C646   1.428       .  A
C645        N652   1.428       .  S
C646        C647   1.415       .  A
C646        H651   1.072       .  S
C647        C648   1.427       .  A
C648        N649   1.432       .  S
N649        O653   1.262       .  A
N649        O654   1.263       .  A
N652        O656   1.262       .  A
N652        O655   1.262       .  A
