geometry optimzed in LAMMPS
_audit_creation_date              2020-11-30 
_audit_creation_method            'lammps2cif' 
_symmetry_space_group_name_H-M    'P1' 
_symmetry_Int_Tables_number       1 
_symmetry_cell_setting            triclinic 
loop_ 
_symmetry_equiv_pos_as_xyz 
  x,y,z 
_cell_length_a                    24.67486237 
_cell_length_b                    24.088501499838962 
_cell_length_c                    35.241681373854604 
_cell_angle_alpha                 90.29917757897829 
_cell_angle_beta                  90.10593506488345 
_cell_angle_gamma                 90.06508126989266 
loop_ 
_atom_site_label 
_atom_site_type_symbol 
_atom_site_fract_x 
_atom_site_fract_y 
_atom_site_fract_z 
_atom_site_charge 
N1          N  0.09044297  0.01132141  0.02405959    -0.35600
N2          N  0.01167690  0.92160767  0.02180511    -0.56100
N3          N  0.92348662  0.00163718  0.02010901    -0.35600
N4          N  0.00167684  0.09148653  0.01884513    -0.56100
C5          C  0.12279884  0.96776323  0.01511162     0.28000
C6          C  0.11779380  0.05809248  0.01492772     0.28000
C7          C  0.89595601  0.95411279  0.01295046     0.28000
C8          C  0.89047914  0.04436284  0.01091563     0.28000
C9          C  0.05716619  0.89178408  0.02788601     0.36600
C10         C  0.96961866  0.88661833  0.02724402     0.36600
C11         C  0.04350228  0.12718816  0.02343667     0.36600
C12         C  0.95584224  0.12212909  0.02099148     0.36600
C13         C  0.17140950  0.98724368  0.00060281    -0.20900
C14         C  0.16846131  0.04418637  0.00083767    -0.20900
C15         C  0.84452974  0.96677345  0.99962969    -0.20900
C16         C  0.84104556  0.02369558  0.99839389    -0.20900
C17         C  0.04392941  0.83769754  0.03747343    -0.21900
C18         C  0.98841693  0.83439313  0.03698516    -0.21900
C19         C  0.02416824  0.18077605  0.02830557    -0.21900
C20         C  0.96866200  0.17758547  0.02664500    -0.21900
C21         C  0.11022496  0.91096120  0.02051128    -0.17300
C22         C  0.09881935  0.11312856  0.01944825    -0.17300
C23         C  0.90279136  0.10147941  0.01505217    -0.17300
C24         C  0.91483779  0.89971630  0.02008834    -0.17300
H25         H  0.20554734  0.96302267  0.99073282     0.15600
H26         H  0.19983077  0.07215498  0.99115907     0.15600
H27         H  0.81258830  0.93800364  0.99190658     0.15600
H28         H  0.80590906  0.04713491  0.98946856     0.15600
H29         H  0.07145199  0.80379696  0.04322460     0.13900
H30         H  0.96466314  0.79744093  0.04228311     0.13900
H31         H  0.04764685  0.21845860  0.03174883     0.13900
H32         H  0.94096126  0.21227827  0.02866643     0.13900
H33         H  0.05386752  0.00958661  0.03861129     0.27200
H34         H  0.96031297  0.00468617  0.03425694     0.27200
N35         N  0.91168710  0.99402940  0.48697056    -0.35600
N36         N  0.99527981  0.90957992  0.48709184    -0.56100
N37         N  0.07719050  0.99604899  0.49006953    -0.35600
N38         N  0.99349002  0.08066761  0.49402689    -0.56100
C39         C  0.88131926  0.94819981  0.49277283     0.28000
C40         C  0.88039972  0.03843251  0.49500424     0.28000
C41         C  0.10781075  0.95062315  0.49654866     0.28000
C42         C  0.10669152  0.04086693  0.50054974     0.28000
C43         C  0.95193724  0.87688294  0.48005386     0.36600
C44         C  0.03951736  0.87813730  0.48048270     0.36600
C45         C  0.94968642  0.11232076  0.48647734     0.36600
C46         C  0.03726278  0.11342738  0.48882038     0.36600
C47         C  0.82973296  0.96370427  0.50425588    -0.20900
C48         C  0.82915007  0.02070039  0.50566644    -0.20900
C49         C  0.15770471  0.96674598  0.51110740    -0.20900
C50         C  0.15694777  0.02372079  0.51372270    -0.20900
C51         C  0.96862180  0.82422318  0.46923217    -0.21900
C52         C  0.02425065  0.82504697  0.46942847    -0.21900
C53         C  0.96559332  0.16558004  0.47679747    -0.21900
C54         C  0.02121781  0.16621448  0.47811105    -0.21900
C55         C  0.89763404  0.89292834  0.48570882    -0.17300
C56         C  0.89551453  0.09451635  0.49041263    -0.17300
C57         C  0.09127007  0.09691080  0.49555871    -0.17300
C58         C  0.09323172  0.89529495  0.48768389    -0.17300
H59         H  0.79582208  0.93675919  0.51056493     0.15600
H60         H  0.79470181  0.04619806  0.51327778     0.15600
H61         H  0.19138143  0.94025295  0.51871693     0.15600
H62         H  0.18996611  0.04965614  0.52364301     0.15600
H63         H  0.94337366  0.78874466  0.46245324     0.13900
H64         H  0.05044638  0.79024779  0.46300386     0.13900
H65         H  0.93979868  0.20034540  0.46971492     0.13900
H66         H  0.04686310  0.20158522  0.47216474     0.13900
H67         H  0.94984713  0.99527967  0.47371905     0.27200
H68         H  0.04057789  0.99684741  0.47473898     0.27200
O69         O  0.45385390  0.50347343  0.08183065    -0.77500
C70         C  0.39724835  0.61666521  0.99412561     0.83600
O71         O  0.43424840  0.39080840  0.96933655    -0.78600
O72         O  0.51053934  0.55639651  0.90671134    -0.80100
O73         O  0.61693102  0.57198006  0.02180698    -0.79900
O74         O  0.54376412  0.50176446  0.08598136    -0.78500
Zn75       Zn  0.43821443  0.50663227  0.02569976     1.55700
O76         O  0.57677964  0.62248379  0.97725210    -0.79900
Cd77       Cd  0.56813614  0.50324778  0.02968223     1.59700
Cd78       Cd  0.50409925  0.43866788  0.96149722     1.59600
O79         O  0.61526214  0.43365621  0.01893937    -0.79900
O80         O  0.50390822  0.50606260  0.99533154    -1.90400
Cd81       Cd  0.50786426  0.57570259  0.96418119     1.59900
O82         O  0.57123094  0.38862388  0.97283882    -0.79800
O83         O  0.43901321  0.62374250  0.97333971    -0.78500
C84         C  0.39429360  0.39860353  0.99166754     0.84000
C85         C  0.49709985  0.50177323  0.10153068     0.83700
O86         O  0.39268854  0.57417811  0.01521495    -0.77400
C87         C  0.61567731  0.61465518  0.00054214     0.84500
O88         O  0.39264486  0.44073930  0.01352257    -0.77500
C89         C  0.61098128  0.39280505  0.99597093     0.84600
C90         C  0.50904342  0.51067616  0.88831273     0.85000
O91         O  0.50654504  0.46387017  0.90516028    -0.80000
O92         O  0.38215007  0.55768823  0.46938065    -0.77500
C93         C  0.49469662  0.48598299  0.38733146     0.83600
O94         O  0.43069052  0.37826718  0.52122968    -0.78600
O95         O  0.61211316  0.42943494  0.47288855    -0.80100
O96         O  0.55902885  0.61584205  0.51143393    -0.79900
O97         O  0.42353514  0.60709328  0.51426997    -0.78500
Zn98       Zn  0.43065714  0.49040376  0.46176348     1.55700
O99         O  0.60357830  0.56654615  0.46795380    -0.79900
Cd100      Cd  0.49435988  0.56363290  0.52476936     1.59700
Cd101      Cd  0.49870833  0.42812604  0.52769622     1.59600
O102        O  0.49954057  0.54433138  0.58219915    -0.79900
O103        O  0.49514358  0.49417534  0.49343883    -1.90400
Cd104      Cd  0.56085252  0.49423718  0.46056557     1.59900
O105        O  0.50532658  0.45207752  0.58407351    -0.79800
O106        O  0.54066914  0.48735016  0.40377776    -0.78500
C107        C  0.39106628  0.38186938  0.49813508     0.84000
C108        C  0.38417882  0.60007948  0.49115275     0.83700
O109        O  0.45058748  0.48704834  0.40611988    -0.77400
C110        C  0.59854370  0.60989813  0.48847988     0.84500
O111        O  0.38771247  0.42192288  0.47470337    -0.77500
C112        C  0.50440840  0.49915298  0.60075473     0.84600
C113        C  0.60655040  0.38687377  0.49373924     0.85000
O114        O  0.56531091  0.37993281  0.51489974    -0.80000
C115        C  0.52833608  0.55364833  0.78491790    -0.13300
C116        C  0.50382444  0.50904746  0.76564931     0.17100
C117        C  0.48121357  0.46543954  0.78706102     0.03300
C118        C  0.48470004  0.46643079  0.82669779    -0.11800
C119        C  0.50855215  0.51133666  0.84610733    -0.02900
C120        C  0.52976915  0.55587074  0.82467564     0.02600
C121        C  0.50441859  0.50732944  0.72337222     0.09400
N122        N  0.45200707  0.42122434  0.76913298     0.65800
H123        H  0.46678651  0.43251758  0.84242288     0.18700
N124        N  0.55337691  0.60347342  0.84257715     0.76300
H125        H  0.54703127  0.58689912  0.76903825     0.10200
C126        C  0.48587431  0.55227592  0.70134066     0.03900
C127        C  0.48746380  0.54908465  0.66167852    -0.04800
C128        C  0.50732751  0.50169643  0.64293145    -0.23200
C129        C  0.52782349  0.45749981  0.66504877     0.13200
C130        C  0.52606607  0.46071823  0.70476191    -0.12300
N131        N  0.46362039  0.60087540  0.71868836     0.64800
H132        H  0.47165954  0.58361915  0.64549505     0.12700
N133        N  0.55265876  0.41007595  0.64786093     0.61500
H134        H  0.54267145  0.42684982  0.72120193     0.08800
O135        O  0.52635604  0.64783789  0.84462075    -0.40000
O136        O  0.60393342  0.60510133  0.84789364    -0.39200
O137        O  0.47136730  0.37276637  0.76946773    -0.39200
O138        O  0.40253823  0.42795131  0.76129155    -0.36900
O139        O  0.60333354  0.40963290  0.64309026    -0.37800
O140        O  0.52653157  0.36512790  0.64549427    -0.33900
O141        O  0.49074737  0.64532435  0.71876708    -0.35300
O142        O  0.41349272  0.60275174  0.72553972    -0.39600
C143        C  0.44747073  0.47962124  0.20281942    -0.13300
C144        C  0.49000844  0.50344927  0.22374420     0.17100
C145        C  0.53426560  0.52687665  0.20429981     0.03300
C146        C  0.53572683  0.52553591  0.16464972    -0.11800
C147        C  0.49350604  0.50133711  0.14353107    -0.02900
C148        C  0.44884916  0.47819874  0.16304651     0.02600
C149        C  0.49015074  0.49878992  0.26567368     0.09400
N150        N  0.57772605  0.55299779  0.22444630     0.65800
H151        H  0.56998538  0.54416871  0.15030328     0.18700
N152        N  0.40645493  0.44979513  0.14318622     0.76300
H153        H  0.41398045  0.46008115  0.21747534     0.10200
C154        C  0.44891440  0.52230095  0.28821163     0.03900
C155        C  0.45026265  0.51593593  0.32765669    -0.04800
C156        C  0.49223214  0.48639807  0.34536274    -0.23200
C157        C  0.53251851  0.46126973  0.32263142     0.13200
C158        C  0.53119658  0.46783200  0.28319072    -0.12300
N159        N  0.40651197  0.55449345  0.27167028     0.64800
H160        H  0.41913893  0.53578719  0.34461097     0.12700
N161        N  0.57330795  0.42657611  0.33884206     0.61500
H162        H  0.56189084  0.44768754  0.26602258     0.08800
O163        O  0.36061464  0.47246794  0.13997581    -0.40000
O164        O  0.41109064  0.39848662  0.13655692    -0.39200
O165        O  0.62245372  0.52810350  0.22764067    -0.39200
O166        O  0.57541779  0.60440770  0.23127580    -0.36900
O167        O  0.56315164  0.37580966  0.34396934    -0.37800
O168        O  0.62187545  0.44300324  0.33952332    -0.33900
O169        O  0.35984168  0.53357283  0.26825947    -0.35300
O170        O  0.41218396  0.60640809  0.26917827    -0.39600
C171        C  0.18677868  0.78008128  0.52000529    -0.13300
C172        C  0.21979100  0.77283826  0.48791145     0.17100
C173        C  0.21045444  0.80586508  0.45555402     0.03300
C174        C  0.16889432  0.84538710  0.45584347    -0.11800
C175        C  0.13632012  0.85253547  0.48795138    -0.02900
C176        C  0.14533993  0.81972494  0.52022387     0.02600
C177        C  0.26240091  0.72938911  0.48828679     0.09400
N178        N  0.24384899  0.80096624  0.42264543     0.65800
H179        H  0.16219752  0.87088898  0.43102967     0.18700
N180        N  0.11300307  0.82697627  0.55347569     0.76300
H181        H  0.19292967  0.75451896  0.54483996     0.10200
C182        C  0.30527341  0.73091229  0.51468974     0.03900
C183        C  0.34394470  0.68852816  0.51494781    -0.04800
C184        C  0.34069253  0.64314297  0.48971171    -0.23200
C185        C  0.29674874  0.64116188  0.46370599     0.13200
C186        C  0.25861222  0.68435069  0.46305700    -0.12300
N187        N  0.31049778  0.77551497  0.54132966     0.64800
H188        H  0.37674131  0.69140351  0.53534633     0.12700
N189        N  0.28913708  0.59527550  0.43838714     0.61500
H190        H  0.22499846  0.68201637  0.44327095     0.08800
O191        O  0.12492248  0.86465538  0.57706358    -0.40000
O192        O  0.06832393  0.80182033  0.55629648    -0.39200
O193        O  0.22608519  0.77525832  0.39391323    -0.39200
O194        O  0.28410118  0.83285895  0.41910965    -0.36900
O195        O  0.25872200  0.55575017  0.44822295    -0.37800
O196        O  0.30177562  0.60032273  0.40389788    -0.33900
O197        O  0.29513350  0.76840850  0.57509166    -0.35300
O198        O  0.34176775  0.81545171  0.53386892    -0.39600
C199        C  0.80290536  0.77599190  0.51323198    -0.13300
C200        C  0.77211424  0.77007224  0.48003726     0.17100
C201        C  0.78349975  0.80353751  0.44840393     0.03300
C202        C  0.82484793  0.84318113  0.45065928    -0.11800
C203        C  0.85517840  0.84956790  0.48404031    -0.02900
C204        C  0.84434723  0.81546491  0.51544632     0.02600
C205        C  0.72698599  0.73010401  0.47978320     0.09400
N206        N  0.75328949  0.79790168  0.41399548     0.65800
H207        H  0.83323347  0.86926500  0.42639574     0.18700
N208        N  0.87423482  0.82146094  0.54996876     0.76700
H209        H  0.79415691  0.75036146  0.53766370     0.10200
C210        C  0.73554790  0.67420362  0.47018586     0.03900
C211        C  0.69292816  0.63633768  0.47292303    -0.04800
C212        C  0.64142406  0.65289354  0.48578155    -0.23200
C213        C  0.63310521  0.70924094  0.49570405     0.13200
C214        C  0.67585101  0.74729266  0.49238534    -0.12300
N215        N  0.78777412  0.65494263  0.45872456     0.64800
H216        H  0.70074192  0.59330405  0.46568381     0.12700
N217        N  0.58177205  0.72876010  0.50883923     0.61500
H218        H  0.66939183  0.79033006  0.50028242     0.08800
O219        O  0.91202534  0.78791072  0.55726870    -0.40000
O220        O  0.85595351  0.85222843  0.57603717    -0.39200
O221        O  0.71538543  0.83150715  0.40712099    -0.39200
O222        O  0.77193848  0.76828745  0.38743762    -0.36900
O223        O  0.57458372  0.73612663  0.54394873    -0.37800
O224        O  0.54948481  0.75087641  0.48560562    -0.33900
O225        O  0.81801469  0.63145278  0.48266103    -0.35300
O226        O  0.79845188  0.65051180  0.42384730    -0.39600
C227        C  0.74091325  0.31148213  0.48658708    -0.13300
C228        C  0.72370215  0.25603849  0.48727636     0.17100
C229        C  0.66801389  0.24394069  0.49037422     0.03300
C230        C  0.63067959  0.28737873  0.49288856    -0.11800
C231        C  0.64783486  0.34289979  0.49216712    -0.02900
C232        C  0.70358355  0.35492065  0.48891904     0.02600
C233        C  0.76540875  0.21233135  0.48797371     0.09400
N234        N  0.64873820  0.18808519  0.49231919     0.65800
H235        H  0.58792597  0.27758522  0.49523993     0.18700
N236        N  0.72320772  0.41074149  0.49007634     0.76300
H237        H  0.78378962  0.32103582  0.48490379     0.10200
C238        C  0.77509026  0.17735344  0.45653311     0.03900
C239        C  0.81799697  0.13948189  0.45773405    -0.04800
C240        C  0.85172779  0.13643074  0.48969640    -0.23200
C241        C  0.84192494  0.17123135  0.52110844     0.13200
C242        C  0.79891229  0.20880208  0.52003996    -0.12300
N243        N  0.74337922  0.18136159  0.42270052     0.64800
H244        H  0.82545882  0.11267807  0.43350688     0.12700
N245        N  0.87489608  0.16830880  0.55438993     0.61500
H246        H  0.79184181  0.23578919  0.54423869     0.08800
O247        O  0.73676991  0.43421054  0.45960688    -0.40000
O248        O  0.73825975  0.43134456  0.52136596    -0.39200
O249        O  0.64236184  0.16616155  0.52444043    -0.39200
O250        O  0.62413997  0.16768767  0.46408342    -0.36900
O251        O  0.85933326  0.13940856  0.58207173    -0.37800
O252        O  0.91278603  0.20290546  0.55906857    -0.33900
O253        O  0.75732216  0.21545532  0.39746493    -0.35300
O254        O  0.71151893  0.14228643  0.41402612    -0.39600
C255        C  0.18039773  0.21996814  0.52275230    -0.13300
C256        C  0.21857691  0.21882717  0.49338789     0.17100
C257        C  0.21461460  0.17802430  0.46477267     0.03300
C258        C  0.17271731  0.13896112  0.46597133    -0.11800
C259        C  0.13457911  0.13979966  0.49542255    -0.02900
C260        C  0.13845945  0.18085075  0.52400056     0.02600
C261        C  0.26305278  0.25973268  0.49381980     0.09400
N262        N  0.25341711  0.17502790  0.43480646     0.65800
H263        H  0.17003299  0.10753080  0.44392049     0.18700
N264        N  0.10090252  0.18261357  0.55479496     0.76300
H265        H  0.18347185  0.25115416  0.54493828     0.10200
C266        C  0.26002642  0.30861082  0.47240451     0.03900
C267        C  0.30202192  0.34745154  0.47439288    -0.04800
C268        C  0.34751133  0.33899069  0.49785748    -0.23200
C269        C  0.34992974  0.28982289  0.51977649     0.13200
C270        C  0.30786497  0.25078433  0.51740494    -0.12300
N271        N  0.21375841  0.32021069  0.44936092     0.64800
H272        H  0.29844582  0.38481439  0.45759600     0.12700
N273        N  0.39436426  0.27864413  0.54464020     0.61500
H274        H  0.30997425  0.21337732  0.53431132     0.08800
O275        O  0.06289936  0.21761206  0.55430859    -0.40000
O276        O  0.11297842  0.15917092  0.58559757    -0.39200
O277        O  0.29304524  0.14227768  0.43779327    -0.39200
O278        O  0.24135895  0.19417940  0.40263222    -0.36900
O279        O  0.39035270  0.29088837  0.57938212    -0.37800
O280        O  0.43116738  0.24576528  0.53400388    -0.33900
O281        O  0.17566265  0.34895098  0.46294948    -0.35300
O282        O  0.21660268  0.31316065  0.41392610    -0.39600
C283        C  0.26272409  0.69186145  0.01031815    -0.13300
C284        C  0.27328896  0.74319005  0.99352951     0.17100
C285        C  0.32363235  0.75233879  0.97600283     0.03300
C286        C  0.36297870  0.71047716  0.97609830    -0.11800
C287        C  0.35332147  0.65911431  0.99375851    -0.02900
C288        C  0.30197547  0.64994836  0.01072255     0.02600
C289        C  0.23323830  0.78818785  0.99820278     0.09400
N290        N  0.33552287  0.80408024  0.95822626     0.65800
H291        H  0.40163493  0.71876099  0.96272876     0.18700
N292        N  0.28881793  0.59873643  0.02881504     0.76300
H293        H  0.22411271  0.68479017  0.02412139     0.10200
C294        C  0.18601299  0.79059887  0.97581997     0.03900
C295        C  0.14714581  0.83150852  0.98309927    -0.04800
C296        C  0.15333404  0.86877847  0.01358822    -0.23200
C297        C  0.20015216  0.86548460  0.03650541     0.13200
C298        C  0.24009256  0.82600419  0.02819755    -0.12300
N299        N  0.17608823  0.75066547  0.94651848     0.64800
H300        H  0.11122739  0.83343461  0.96540274     0.12700
N301        N  0.20620972  0.89969452  0.06948245     0.61500
H302        H  0.27560405  0.82324958  0.04624037     0.08800
O303        O  0.26108028  0.56300231  0.01106385    -0.40000
O304        O  0.29368684  0.59490971  0.06435784    -0.39200
O305        O  0.36536485  0.83890290  0.97511611    -0.39200
O306        O  0.32627510  0.80969291  0.92323214    -0.36900
O307        O  0.18782025  0.88284488  0.10076574    -0.37800
O308        O  0.23991904  0.93911327  0.06923726    -0.33900
O309        O  0.14845299  0.70798183  0.95394205    -0.35300
O310        O  0.18367662  0.76395384  0.91235824    -0.39600
C311        C  0.80564076  0.79643868  0.04756637    -0.13300
C312        C  0.79737159  0.76792216  0.01312041     0.17100
C313        C  0.82962455  0.78164146  0.98145356     0.03300
C314        C  0.86798339  0.82432419  0.98426278    -0.11800
C315        C  0.87512653  0.85348519  0.01835636    -0.02900
C316        C  0.84439527  0.83887930  0.05034673     0.02600
C317        C  0.75185656  0.72776300  0.00962673     0.09400
N318        N  0.82445089  0.75195252  0.94643524     0.65800
H319        H  0.89219581  0.83496431  0.95971941     0.18700
N320        N  0.85214535  0.86724885  0.08564961     0.76300
H321        H  0.78088796  0.78681231  0.07202355     0.10200
C322        C  0.74861903  0.67993119  0.03230046     0.03900
C323        C  0.70413211  0.64415516  0.02874486    -0.04800
C324        C  0.66147416  0.65515703  0.00322250    -0.23200
C325        C  0.66455741  0.70382181  0.98090163     0.13200
C326        C  0.70956359  0.73915795  0.98418685    -0.12300
N327        N  0.79047851  0.66654117  0.05876742     0.64800
H328        H  0.70326972  0.60737656  0.04629679     0.12700
N329        N  0.62207920  0.71898986  0.95539257     0.61500
H330        H  0.71091160  0.77657609  0.96726627     0.08800
O331        O  0.88862846  0.85106458  0.10814131    -0.40000
O332        O  0.82974106  0.91364724  0.09116043    -0.39200
O333        O  0.80219598  0.77509966  0.91841475    -0.39200
O334        O  0.85219989  0.70862853  0.94120467    -0.36900
O335        O  0.58436925  0.74998191  0.96707578    -0.37800
O336        O  0.62865012  0.71227572  0.92016679    -0.33900
O337        O  0.78278444  0.67555717  0.09364730    -0.35300
O338        O  0.82781617  0.63389442  0.04874827    -0.39600
C339        C  0.78483637  0.19770615  0.03740559    -0.13300
C340        C  0.77183868  0.21786383  0.00127988     0.17100
C341        C  0.80211273  0.19978357  0.96966168     0.03300
C342        C  0.84456495  0.16183584  0.97460621    -0.11800
C343        C  0.85774411  0.14200762  0.01080278    -0.02900
C344        C  0.82761873  0.16024504  0.04238718     0.02600
C345        C  0.73046709  0.26203613  0.99798791     0.09400
N346        N  0.79143087  0.22100638  0.93263610     0.65800
H347        H  0.86771225  0.14813757  0.95019479     0.18700
N348        N  0.84129756  0.14252738  0.07979525     0.76300
H349        H  0.76253078  0.21230007  0.06196727     0.10200
C350        C  0.67559095  0.24998851  0.99062191     0.03900
C351        C  0.63757945  0.29324460  0.98904065    -0.04800
C352        C  0.65291832  0.34852010  0.99646395    -0.23200
C353        C  0.70789295  0.36003613  0.00495625     0.13200
C354        C  0.74606787  0.31703308  0.00495445    -0.12300
N355        N  0.65741789  0.19389761  0.98690427     0.64800
H356        H  0.59547321  0.28325855  0.98343110     0.12700
N357        N  0.72581257  0.41505625  0.01372081     0.61500
H358        H  0.78808386  0.32645256  0.01136018     0.08800
O359        O  0.87386724  0.17113907  0.09944721    -0.40000
O360        O  0.81318456  0.10551697  0.09559818    -0.39200
O361        O  0.82077297  0.25948754  0.91980060    -0.39200
O362        O  0.76172025  0.19359929  0.91016566    -0.36900
O363        O  0.72818118  0.43046378  0.04796647    -0.37800
O364        O  0.75062712  0.44264696  0.98885432    -0.33900
O365        O  0.64104098  0.16843446  0.01592064    -0.35300
O366        O  0.64736936  0.17422142  0.95440173    -0.39600
C367        C  0.21091859  0.21739492  0.04008960    -0.13300
C368        C  0.21491484  0.24455449  0.00508612     0.17100
C369        C  0.17993534  0.22910872  0.97520079     0.03300
C370        C  0.14197198  0.18671196  0.98057352    -0.11800
C371        C  0.13856738  0.15901360  0.01535893    -0.02900
C372        C  0.17330104  0.17457932  0.04534277     0.02600
C373        C  0.25853093  0.28585285  0.99955769     0.09400
N374        N  0.18224444  0.25643816  0.93938173     0.65800
H375        H  0.11530637  0.17492162  0.95741701     0.18700
N376        N  0.17131604  0.14675057  0.08100491     0.76300
H377        H  0.23815386  0.22848340  0.06307947     0.10200
C378        C  0.25949628  0.33598625  0.02011988     0.03900
C379        C  0.30364139  0.37191047  0.01659314    -0.04800
C380        C  0.34805585  0.35880259  0.99309252    -0.23200
C381        C  0.34676583  0.30830135  0.97237550     0.13200
C382        C  0.30202355  0.27269247  0.97562176    -0.12300
N383        N  0.21582383  0.35116828  0.04463678     0.64800
H384        H  0.30298195  0.41029168  0.03275256     0.12700
N385        N  0.39112250  0.29127172  0.94910193     0.61500
H386        H  0.30206359  0.23355228  0.96030734     0.08800
O387        O  0.14708593  0.16928754  0.10854862    -0.40000
O388        O  0.20281475  0.10651414  0.08705631    -0.39200
O389        O  0.20617367  0.23325290  0.91195760    -0.39200
O390        O  0.15119219  0.29695745  0.93311879    -0.36900
O391        O  0.42862338  0.26256361  0.96342238    -0.37800
O392        O  0.38682494  0.29407856  0.91348306    -0.33900
O393        O  0.22193907  0.34754489  0.08009523    -0.35300
O394        O  0.17708909  0.37947063  0.03161746    -0.39600
loop_ 
_geom_bond_atom_site_label_1 
_geom_bond_atom_site_label_2 
_geom_bond_distance 
_geom_bond_site_symmetry_2 
_ccdc_geom_bond_type 
N1            C6   1.353       .  A
N1            C5   1.355   1_545  A
N1           H33   1.040       .  S
N2            C9   1.351       .  A
N2           C10   1.351   1_455  A
N3            C8   1.354       .  A
N3            C7   1.353   1_545  A
N3           H34   1.038       .  S
N4           C11   1.352       .  A
N4           C12   1.353   1_455  A
C5           C13   1.387       .  A
C5           C21   1.417       .  A
C6           C22   1.415       .  A
C6           C14   1.387       .  A
C7           C15   1.387   1_554  A
C7           C24   1.415       .  A
C8           C23   1.415       .  A
C8           C16   1.387   1_554  A
C9           C21   1.413       .  A
C9           C17   1.386       .  A
C10          C24   1.411       .  A
C10          C18   1.386       .  A
C11          C19   1.387       .  A
C11          C22   1.414       .  A
C12          C20   1.386       .  A
C12          C23   1.415       .  A
C13          C14   1.374   1_565  A
C13          H25   1.082   1_554  S
C14          H26   1.082   1_554  S
C15          C16   1.375   1_565  A
C15          H27   1.082       .  S
C16          H28   1.082       .  S
C17          C18   1.372   1_455  A
C17          H29   1.082       .  S
C18          H30   1.082       .  S
C19          C20   1.373   1_455  A
C19          H31   1.082       .  S
C20          H32   1.082       .  S
C21         C296   1.491       .  S
C22         C371   1.485       .  S
C23         C343   1.488       .  S
C24         C315   1.483       .  S
N35          C40   1.349   1_565  A
N35          C39   1.350       .  A
N35          H67   1.052       .  S
N36          C43   1.349       .  A
N36          C44   1.349   1_655  A
N37          C42   1.351   1_565  A
N37          C41   1.351       .  A
N37          H68   1.052       .  S
N38          C45   1.350       .  A
N38          C46   1.350   1_655  A
C39          C47   1.387       .  A
C39          C55   1.412       .  A
C40          C56   1.411       .  A
C40          C48   1.387       .  A
C41          C49   1.387       .  A
C41          C58   1.413       .  A
C42          C57   1.415       .  A
C42          C50   1.387       .  A
C43          C55   1.409       .  A
C43          C51   1.386       .  A
C44          C58   1.410       .  A
C44          C52   1.386       .  A
C45          C53   1.386       .  A
C45          C56   1.411       .  A
C46          C54   1.386       .  A
C46          C57   1.411       .  A
C47          C48   1.374   1_565  A
C47          H59   1.083       .  S
C48          H60   1.083       .  S
C49          C50   1.375   1_565  A
C49          H61   1.083       .  S
C50          H62   1.083       .  S
C51          C52   1.373   1_655  A
C51          H63   1.082       .  S
C52          H64   1.082       .  S
C53          C54   1.373   1_655  A
C53          H65   1.082       .  S
C54          H66   1.082       .  S
C55         C203   1.479       .  S
C56         C240   1.480       .  S
C57         C259   1.486       .  S
C58         C175   1.481       .  S
O69          C85   1.273       .  A
O69         Zn75   2.017       .  S
C70         C287   1.491       .  S
C70          O86   1.273   1_556  A
C70          O83   1.277       .  A
O71          C84   1.276       .  A
O71         Cd78   2.092       .  S
O72          C90   1.276       .  A
O72         Cd81   2.077       .  S
O73          C87   1.276       .  A
O73         Cd77   2.066       .  S
O74          C85   1.276       .  A
O74         Cd77   2.075       .  S
Zn75         O86   2.014       .  S
Zn75         O88   1.989       .  S
Zn75         O80   1.944   1_554  S
O76          C87   1.277   1_556  A
O76         Cd81   2.088       .  S
Cd77         O79   2.075       .  S
Cd77         O80   1.994   1_554  S
Cd78         O82   2.089       .  S
Cd78         O91   2.080       .  S
Cd78         O80   2.009       .  S
O79          C89   1.275   1_554  A
O80         Cd81   2.012       .  S
Cd81         O83   2.081       .  S
O82          C89   1.278       .  A
C84         C380   1.491       .  S
C84          O88   1.272   1_556  A
C85         C147   1.483       .  S
C87         C324   1.495       .  S
C89         C352   1.487       .  S
C90         C119   1.488       .  S
C90          O91   1.278       .  A
O92         C108   1.275       .  A
O92         Zn98   2.033       .  S
C93         C156   1.480       .  S
C93         O109   1.275       .  A
C93         O106   1.273       .  A
O94         C107   1.274       .  A
O94        Cd101   2.074       .  S
O95         C113   1.272       .  A
O95        Cd104   2.058       .  S
O96         C110   1.276       .  A
O96        Cd100   2.086       .  S
O97         C108   1.277       .  A
O97        Cd100   2.072       .  S
Zn98        O109   2.024       .  S
Zn98        O111   2.014       .  S
Zn98        O103   1.944       .  S
O99         C110   1.274       .  A
O99        Cd104   2.050       .  S
Cd100       O102   2.083       .  S
Cd100       O103   2.000       .  S
Cd101       O105   2.072       .  S
Cd101       O114   2.062       .  S
Cd101       O103   2.004       .  S
O102        C112   1.278       .  A
O103       Cd104   1.994       .  S
Cd104       O106   2.067       .  S
O105        C112   1.275       .  A
C107        C268   1.490       .  S
C107        O111   1.276       .  A
C108        C184   1.494       .  S
C110        C212   1.483       .  S
C112        C128   1.489       .  S
C113        C231   1.471       .  S
C113        O114   1.274       .  A
C115        C116   1.404       .  A
C115        C120   1.402       .  A
C115        H125   1.083       .  S
C116        C117   1.412       .  A
C116        C121   1.490       .  S
C117        C118   1.399       .  A
C117        N122   1.429       .  S
C118        C119   1.405       .  A
C118        H123   1.084       .  S
C119        C120   1.416       .  A
C120        N124   1.429       .  S
C121        C126   1.412       .  A
C121        C130   1.404       .  A
N122        O137   1.262       .  A
N122        O138   1.262       .  A
N124        O135   1.262       .  A
N124        O136   1.262       .  A
C126        C127   1.400       .  A
C126        N131   1.429       .  S
C127        C128   1.405       .  A
C127        H132   1.084       .  S
C128        C129   1.416       .  A
C129        C130   1.402       .  A
C129        N133   1.429       .  S
C130        H134   1.083       .  S
N131        O141   1.262       .  A
N131        O142   1.261       .  A
N133        O139   1.262       .  A
N133        O140   1.262       .  A
C143        C144   1.402       .  A
C143        C148   1.402       .  A
C143        H153   1.084       .  S
C144        C145   1.409       .  A
C144        C149   1.483       .  S
C145        C146   1.398       .  A
C145        N150   1.429       .  S
C146        C147   1.404       .  A
C146        H151   1.084       .  S
C147        C148   1.415       .  A
C148        N152   1.429       .  S
C149        C154   1.409       .  A
C149        C158   1.403       .  A
N150        O165   1.262       .  A
N150        O166   1.262       .  A
N152        O163   1.262       .  A
N152        O164   1.262       .  A
C154        C155   1.400       .  A
C154        N159   1.428       .  S
C155        C156   1.404       .  A
C155        H160   1.084       .  S
C156        C157   1.413       .  A
C157        C158   1.400       .  A
C157        N161   1.429       .  S
C158        H162   1.084       .  S
N159        O169   1.262       .  A
N159        O170   1.262       .  A
N161        O167   1.262       .  A
N161        O168   1.262       .  A
C171        C172   1.405       .  A
C171        C176   1.400       .  A
C171        H181   1.083       .  S
C172        C173   1.413       .  A
C172        C177   1.484       .  S
C173        C174   1.400       .  A
C173        N178   1.428       .  S
C174        C175   1.399       .  A
C174        H179   1.084       .  S
C175        C176   1.406       .  A
C176        N180   1.429       .  S
C177        C182   1.408       .  A
C177        C186   1.402       .  A
N178        O193   1.262       .  A
N178        O194   1.262       .  A
N180        O191   1.262       .  A
N180        O192   1.262       .  A
C182        C183   1.398       .  A
C182        N187   1.429       .  S
C183        C184   1.408       .  A
C183        H188   1.083       .  S
C184        C185   1.419       .  A
C185        C186   1.404       .  A
C185        N189   1.429       .  S
C186        H190   1.084       .  S
N187        O197   1.262       .  A
N187        O198   1.262       .  A
N189        O195   1.262       .  A
N189        O196   1.262       .  A
C199        C200   1.400       .  A
C199        C204   1.397       .  A
C199        H209   1.084       .  S
C200        C201   1.408       .  A
C200        C205   1.471       .  S
C201        C202   1.399       .  A
C201        N206   1.428       .  S
C202        C203   1.401       .  A
C202        H207   1.084       .  S
C203        C204   1.408       .  A
C204        N208   1.428       .  S
C205        C210   1.403       .  A
C205        C214   1.401       .  A
N206        O221   1.262       .  A
N206        O222   1.262       .  A
N208        O219   1.262       .  A
N208        O220   1.262       .  A
C210        C211   1.395       .  A
C210        N215   1.428       .  S
C211        C212   1.407       .  A
C211        H216   1.084       .  S
C212        C213   1.415       .  A
C213        C214   1.402       .  A
C213        N217   1.429       .  S
C214        H218   1.084       .  S
N215        O225   1.262       .  A
N215        O226   1.262       .  A
N217        O223   1.262       .  A
N217        O224   1.262       .  A
C227        C228   1.401       .  A
C227        C232   1.397       .  A
C227        H237   1.084       .  S
C228        C229   1.409       .  A
C228        C233   1.473       .  S
C229        C230   1.397       .  A
C229        N234   1.429       .  S
C230        C231   1.403       .  A
C230        H235   1.084       .  S
C231        C232   1.410       .  A
C232        N236   1.429       .  S
C233        C238   1.409       .  A
C233        C242   1.402       .  A
N234        O249   1.262       .  A
N234        O250   1.262       .  A
N236        O247   1.262       .  A
N236        O248   1.262       .  A
C238        C239   1.399       .  A
C238        N243   1.429       .  S
C239        C240   1.402       .  A
C239        H244   1.084       .  S
C240        C241   1.407       .  A
C241        C242   1.396       .  A
C241        N245   1.428       .  S
C242        H246   1.084       .  S
N243        O253   1.262       .  A
N243        O254   1.262       .  A
N245        O251   1.262       .  A
N245        O252   1.262       .  A
C255        C256   1.401       .  A
C255        C260   1.400       .  A
C255        H265   1.084       .  S
C256        C257   1.408       .  A
C256        C261   1.474       .  S
C257        C258   1.398       .  A
C257        N262   1.428       .  S
C258        C259   1.402       .  A
C258        H263   1.084       .  S
C259        C260   1.411       .  A
C260        N264   1.429       .  S
C261        C266   1.404       .  A
C261        C270   1.400       .  A
N262        O277   1.262       .  A
N262        O278   1.262       .  A
N264        O275   1.262       .  A
N264        O276   1.262       .  A
C266        C267   1.397       .  A
C266        N271   1.429       .  S
C267        C268   1.409       .  A
C267        H272   1.083       .  S
C268        C269   1.419       .  A
C269        C270   1.402       .  A
C269        N273   1.429       .  S
C270        H274   1.084       .  S
N271        O281   1.262       .  A
N271        O282   1.261       .  A
N273        O279   1.262       .  A
N273        O280   1.262       .  A
C283        C284   1.398   1_554  A
C283        C288   1.400       .  A
C283        H293   1.084       .  S
C284        C285   1.406       .  A
C284        C289   1.476       .  S
C285        C286   1.401       .  A
C285        N290   1.428       .  S
C286        C287   1.408       .  A
C286        H291   1.083       .  S
C287        C288   1.419   1_556  A
C288        N292   1.429       .  S
C289        C294   1.407       .  A
C289        C298   1.402   1_556  A
N290        O305   1.262       .  A
N290        O306   1.262       .  A
N292        O303   1.262       .  A
N292        O304   1.262       .  A
C294        C295   1.399       .  A
C294        N299   1.428       .  S
C295        C296   1.405   1_556  A
C295        H300   1.084       .  S
C296        C297   1.411       .  A
C297        C298   1.401       .  A
C297        N301   1.429       .  S
C298        H302   1.084       .  S
N299        O309   1.262       .  A
N299        O310   1.262       .  A
N301        O307   1.262       .  A
N301        O308   1.262       .  A
C311        C312   1.406       .  A
C311        C316   1.402       .  A
C311        H321   1.083       .  S
C312        C313   1.412   1_554  A
C312        C317   1.486       .  S
C313        C314   1.400       .  A
C313        N318   1.429       .  S
C314        C315   1.399   1_556  A
C314        H319   1.084       .  S
C315        C316   1.406       .  A
C316        N320   1.429       .  S
C317        C322   1.408       .  A
C317        C326   1.403   1_554  A
N318        O333   1.262       .  A
N318        O334   1.262       .  A
N320        O331   1.262       .  A
N320        O332   1.262       .  A
C322        C323   1.400       .  A
C322        N327   1.429       .  S
C323        C324   1.410       .  A
C323        H328   1.083       .  S
C324        C325   1.417   1_554  A
C325        C326   1.403       .  A
C325        N329   1.429       .  S
C326        H330   1.084       .  S
N327        O337   1.262       .  A
N327        O338   1.262       .  A
N329        O335   1.262       .  A
N329        O336   1.262       .  A
C339        C340   1.402       .  A
C339        C344   1.401       .  A
C339        H349   1.084       .  S
C340        C341   1.410   1_554  A
C340        C345   1.480   1_554  S
C341        C342   1.402       .  A
C341        N346   1.428       .  S
C342        C343   1.402   1_556  A
C342        H347   1.084       .  S
C343        C344   1.408       .  A
C344        N348   1.428       .  S
C345        C350   1.408       .  A
C345        C354   1.400   1_556  A
N346        O361   1.262       .  A
N346        O362   1.262       .  A
N348        O359   1.262       .  A
N348        O360   1.262       .  A
C350        C351   1.404       .  A
C350        N355   1.428       .  S
C351        C352   1.407       .  A
C351        H356   1.084       .  S
C352        C353   1.415   1_556  A
C353        C354   1.401       .  A
C353        N357   1.429       .  S
C354        H358   1.084       .  S
N355        O365   1.262   1_556  A
N355        O366   1.261       .  A
N357        O363   1.262       .  A
N357        O364   1.262   1_554  A
C367        C368   1.403       .  A
C367        C372   1.400       .  A
C367        H377   1.084       .  S
C368        C369   1.409   1_554  A
C368        C373   1.479   1_554  S
C369        C370   1.399       .  A
C369        N374   1.428       .  S
C370        C371   1.401   1_556  A
C370        H375   1.084       .  S
C371        C372   1.408       .  A
C372        N376   1.428       .  S
C373        C378   1.405   1_556  A
C373        C382   1.402       .  A
N374        O389   1.262       .  A
N374        O390   1.262       .  A
N376        O387   1.262       .  A
N376        O388   1.262       .  A
C378        C379   1.397       .  A
C378        N383   1.429       .  S
C379        C380   1.410   1_554  A
C379        H384   1.083       .  S
C380        C381   1.416       .  A
C381        C382   1.403       .  A
C381        N385   1.428       .  S
C382        H386   1.084       .  S
N383        O393   1.262       .  A
N383        O394   1.262       .  A
N385        O391   1.262       .  A
N385        O392   1.262       .  A
