geometry optimzed in LAMMPS
_audit_creation_date              2020-11-30 
_audit_creation_method            'lammps2cif' 
_symmetry_space_group_name_H-M    'P1' 
_symmetry_Int_Tables_number       1 
_symmetry_cell_setting            triclinic 
loop_ 
_symmetry_equiv_pos_as_xyz 
  x,y,z 
_cell_length_a                    29.620952284701612 
_cell_length_b                    26.397424957141105 
_cell_length_c                    29.3891464347959 
_cell_angle_alpha                 89.85362543464352 
_cell_angle_beta                  89.97852660613971 
_cell_angle_gamma                 89.89217328855834 
loop_ 
_atom_site_label 
_atom_site_type_symbol 
_atom_site_fract_x 
_atom_site_fract_y 
_atom_site_fract_z 
_atom_site_charge 
C1          C  0.78267548  0.97617056  0.22452830     0.03870
C2          C  0.78271726  0.92304036  0.22459554    -0.12280
C3          C  0.75248499  0.89591196  0.25199804     0.01370
C4          C  0.72175938  0.92265439  0.27908313    -0.10810
C5          C  0.72166086  0.97578088  0.27964569     0.03860
C6          C  0.75243824  0.00273089  0.25252350    -0.10230
H7          H  0.80631534  0.90285579  0.20300302     0.09460
H8          H  0.69728737  0.90215627  0.29944587     0.06980
H9          H  0.75193250  0.04379000  0.25216670     0.06830
C10         C  0.77846173  0.59620026  0.21858626     0.03870
C11         C  0.77888955  0.64933383  0.21917672    -0.12280
C12         C  0.75071231  0.67648280  0.24867084     0.01370
C13         C  0.72250820  0.64957528  0.27838637    -0.10810
C14         C  0.72221926  0.59643206  0.27873887     0.03860
C15         C  0.75015717  0.56952800  0.24859010    -0.10230
H16         H  0.80186357  0.66943679  0.19682972     0.09460
H17         H  0.70029375  0.66994915  0.30127195     0.06980
H18         H  0.74996520  0.52847357  0.24856131     0.06830
C19         C  0.77871346  0.47173475  0.77870741     0.03870
C20         C  0.77486489  0.41871163  0.77942699    -0.12280
C21         C  0.74401916  0.39356906  0.75147235     0.01370
C22         C  0.71550725  0.42227948  0.72354429    -0.10810
C23         C  0.71784629  0.47537544  0.72335553     0.03860
C24         C  0.74972659  0.50030345  0.75070816    -0.10230
H25         H  0.79650048  0.39674510  0.80180052     0.09460
H26         H  0.69199815  0.40343031  0.70101020     0.06980
H27         H  0.75231446  0.54122140  0.74970087     0.06830
C28         C  0.77408514  0.09484716  0.78184435     0.03870
C29         C  0.77290477  0.14793805  0.78167180    -0.12280
C30         C  0.74458667  0.17434049  0.75164813     0.01370
C31         C  0.71685398  0.14695107  0.72209079    -0.10810
C32         C  0.71748826  0.09384917  0.72213347     0.03860
C33         C  0.74613207  0.06756828  0.75213042    -0.10230
H34         H  0.79427864  0.16866015  0.80502990     0.09460
H35         H  0.69516199  0.16694824  0.69833460     0.06980
H36         H  0.74722513  0.02652561  0.75179564     0.06830
C37         C  0.22195884  0.09784830  0.78009217     0.03870
C38         C  0.22323114  0.15097229  0.78014243    -0.12280
C39         C  0.25232865  0.17707249  0.75101695     0.01370
C40         C  0.28061940  0.14997951  0.72182491    -0.10810
C41         C  0.28042916  0.09686079  0.72199026     0.03860
C42         C  0.25116671  0.07054977  0.75138772    -0.10230
H43         H  0.20069546  0.17209126  0.80218662     0.09460
H44         H  0.30289689  0.17028066  0.69887721     0.06980
H45         H  0.25008286  0.02951861  0.75084659     0.06830
C46         C  0.28035664  0.47490407  0.72081130     0.03870
C47         C  0.28059019  0.42177139  0.72082308    -0.12280
C48         C  0.25171310  0.39478442  0.74953758     0.01370
C49         C  0.22208702  0.42101159  0.77802826    -0.10810
C50         C  0.22107769  0.47413437  0.77791855     0.03860
C51         C  0.25046941  0.50128979  0.74938197    -0.10230
H52         H  0.30370063  0.40141259  0.69881106     0.09460
H53         H  0.19944735  0.40002539  0.80009587     0.06980
H54         H  0.25001754  0.54235276  0.74932866     0.06830
Zn55       Zn  0.49946409  0.99630386  0.55604330     1.49720
Zn56       Zn  0.55397296  0.07837316  0.49605713     1.49360
Zn57       Zn  0.49914858  0.99101551  0.44728376     1.49110
Zn58       Zn  0.44529122  0.07942672  0.49653464     1.49480
O59         O  0.49943151  0.03638268  0.49929305    -1.83390
O60         O  0.55489249  0.01128843  0.59387828    -0.74020
O61         O  0.59207268  0.06333899  0.44046125    -0.73840
O62         O  0.49841058  0.91780690  0.46677925    -0.73350
O63         O  0.59308417  0.06574815  0.55083217    -0.74030
O64         O  0.49917688  0.92094294  0.54248415    -0.73630
O65         O  0.55294757  0.00207534  0.40741288    -0.74210
O66         O  0.40666531  0.06502767  0.44087177    -0.73600
O67         O  0.53760699  0.15279090  0.49468669    -0.74360
O68         O  0.44543503  0.00319879  0.40797044    -0.73750
O69         O  0.46263841  0.15365553  0.49566257    -0.74220
O70         O  0.40656753  0.06750072  0.55178350    -0.74130
O71         O  0.44464507  0.01263603  0.59467433    -0.73920
C72         C  0.58927190  0.03917090  0.58685859     0.77870
C73         C  0.58675648  0.03166288  0.40833448     0.78360
C74         C  0.49865281  0.89599877  0.50543392     0.77320
C75         C  0.41181012  0.03315951  0.40879852     0.77700
C76         C  0.50031327  0.17696967  0.49478982     0.78830
C77         C  0.41055940  0.04123122  0.58799982     0.77880
Zn78       Zn  0.55449394  0.57913204  0.50301199     1.49720
Zn79       Zn  0.44622410  0.57870339  0.50245218     1.49360
Zn80       Zn  0.50191954  0.49633076  0.44302677     1.49110
Zn81       Zn  0.50041111  0.49116921  0.55230974     1.49480
O82         O  0.50069925  0.53628870  0.49983586    -1.83390
O83         O  0.53737981  0.65314836  0.50481868    -0.74020
O84         O  0.40812000  0.56624602  0.44728430    -0.73840
O85         O  0.55766416  0.51210266  0.40510083    -0.73350
O86         O  0.46248811  0.65323803  0.50379918    -0.74030
O87         O  0.59347907  0.56801181  0.44827372    -0.73630
O88         O  0.44655102  0.51182235  0.40437496    -0.74210
O89         O  0.49886757  0.41796342  0.53308204    -0.73600
O90         O  0.40719449  0.56356285  0.55758222    -0.74360
O91         O  0.50260258  0.42092567  0.45740752    -0.73750
O92         O  0.44695109  0.50344765  0.59205252    -0.74220
O93         O  0.55457273  0.50230910  0.59174188    -0.74130
O94         O  0.59318946  0.56384119  0.55802499    -0.73920
C95         C  0.49993414  0.67697954  0.50484802     0.77870
C96         C  0.41216362  0.53995700  0.41122912     0.78360
C97         C  0.59117065  0.54120957  0.41241450     0.77320
C98         C  0.50053279  0.39604667  0.49458976     0.77700
C99         C  0.41276855  0.53254184  0.59034634     0.78830
C100        C  0.58829841  0.53203309  0.59023655     0.77880
C101        C  0.27710578  0.97559305  0.28088934     0.03870
C102        C  0.27690137  0.92243213  0.28172505    -0.12280
C103        C  0.24751906  0.89500122  0.25383720     0.01370
C104        C  0.21860884  0.92141682  0.22446471    -0.10810
C105        C  0.21865841  0.97451124  0.22302093     0.03860
C106        C  0.24752802  0.00183488  0.25180157    -0.10230
H107        H  0.30060193  0.90245195  0.30342696     0.09460
H108        H  0.19602824  0.90064616  0.20230696     0.06980
H109        H  0.24827433  0.04285870  0.25024720     0.06830
C110        C  0.27866446  0.59528916  0.28063067     0.03870
C111        C  0.27810965  0.64842533  0.28111295    -0.12280
C112        C  0.24958998  0.67569311  0.25192523     0.01370
C113        C  0.22115515  0.64902918  0.22244793    -0.10810
C114        C  0.22157834  0.59593049  0.22137653     0.03860
C115        C  0.25034658  0.56883517  0.25065123    -0.10230
H116        H  0.30054103  0.66851170  0.30392387     0.09460
H117        H  0.19824101  0.66953990  0.20029290     0.06980
H118        H  0.25093229  0.52779164  0.24987980     0.06830
Zn119      Zn  0.00130386  0.07562333  0.05709530     1.49720
Zn120      Zn  0.94477833  0.99447421  0.99868357     1.49360
Zn121      Zn  0.99777256  0.08175783  0.94780416     1.49110
Zn122      Zn  0.05326950  0.99346451  0.99568119     1.49480
O123        O  0.99931363  0.03632112  0.00004444    -1.83390
O124        O  0.94689655  0.06062762  0.09686970    -0.74020
O125        O  0.90435092  0.01056477  0.94501331    -0.73840
O126        O  0.99702677  0.15453887  0.96828758    -0.73350
O127        O  0.90788463  0.00627642  0.05477339    -0.74030
O128        O  0.00227745  0.15080839  0.04369804    -0.73630
O129        O  0.94315731  0.07012227  0.90877024    -0.74210
O130        O  0.09110709  0.00947042  0.93996132    -0.73600
O131        O  0.96101210  0.92009787  0.99658244    -0.74360
O132        O  0.05175130  0.07145461  0.90770899    -0.73750
O133        O  0.03589886  0.91952238  0.99395936    -0.74220
O134        O  0.09299953  0.00368560  0.05029725    -0.74130
O135        O  0.05697111  0.05901607  0.09404751    -0.73920
C136        C  0.91255883  0.03244018  0.09078289     0.77870
C137        C  0.90880723  0.04148659  0.91203118     0.78360
C138        C  0.99969678  0.17624760  0.00687820     0.77320
C139        C  0.08572857  0.04188823  0.90824817     0.77700
C140        C  0.99832199  0.89604581  0.99482798     0.78830
C141        C  0.09049138  0.02994482  0.08650436     0.77880
Zn142      Zn  0.05503916  0.57817517  0.99600397     1.49720
Zn143      Zn  0.94646126  0.57745659  0.99488266     1.49360
Zn144      Zn  0.00200384  0.48924974  0.94922810     1.49110
Zn145      Zn  0.00153686  0.49638359  0.05754186     1.49480
O146        O  0.00117660  0.53551737  0.99999266    -1.83390
O147        O  0.03766437  0.65210070  0.99463895    -0.74020
O148        O  0.90863776  0.56164819  0.93851353    -0.73840
O149        O  0.05563736  0.49967462  0.90944428    -0.73350
O150        O  0.96273856  0.65192257  0.99374009    -0.74030
O151        O  0.09348264  0.56321495  0.94041385    -0.73630
O152        O  0.94885682  0.49895531  0.90950143    -0.74210
O153        O  0.00164236  0.42039531  0.04529364    -0.73600
O154        O  0.90749287  0.56545019  0.04976506    -0.74360
O155        O  0.00072328  0.41722521  0.96979659    -0.73750
O156        O  0.94562619  0.51289224  0.09493311    -0.74220
O157        O  0.05717908  0.51272503  0.09528622    -0.74130
O158        O  0.09401424  0.56680746  0.05076079    -0.73920
C159        C  0.00014317  0.67578297  0.99392264     0.77870
C160        C  0.91481086  0.52812660  0.90800186     0.78360
C161        C  0.08871405  0.53024763  0.90925190     0.77320
C162        C  0.00057630  0.39522842  0.00832139     0.77700
C163        C  0.91107609  0.54036203  0.08671648     0.78830
C164        C  0.09117513  0.54097071  0.08728899     0.77880
C165        C  0.02053097  0.31198871  0.04431226    -0.20570
C166        C  0.99893806  0.33926727  0.00945236    -0.08610
C167        C  0.97682085  0.31252867  0.97461496     0.30250
C168        C  0.97721780  0.25966930  0.97422721    -0.20570
C169        C  0.99932647  0.23225614  0.00862940    -0.08620
C170        C  0.02094999  0.25889673  0.04389330     0.30260
F171        F  0.04390062  0.23377184  0.07696939    -0.19140
H172        H  0.03808038  0.33178361  0.07122012     0.18620
H173        H  0.95982907  0.24009972  0.94706993     0.18630
F174        F  0.95403726  0.33746367  0.94127726    -0.19130
C175        C  0.03942886  0.81307761  0.99225095    -0.20570
C176        C  0.99828787  0.83968153  0.99406061    -0.08610
C177        C  0.95777889  0.81174812  0.99553948     0.30250
C178        C  0.95873836  0.75874243  0.99525144    -0.20570
C179        C  0.99990760  0.73215800  0.99358880    -0.08620
C180        C  0.04039617  0.76011814  0.99204136     0.30260
F181        F  0.08114381  0.73658061  0.99033803    -0.19140
H182        H  0.07118615  0.83325500  0.99110987     0.18620
H183        H  0.92701382  0.73851359  0.99656500     0.18630
F184        F  0.91707532  0.83535547  0.99747613    -0.19130
C185        C  0.11941512  0.53562175  0.16771439    -0.20570
C186        C  0.12776068  0.54566487  0.12140495    -0.08610
C187        C  0.17036379  0.56462012  0.10853750     0.30250
C188        C  0.20223832  0.57705904  0.14153163    -0.20570
C189        C  0.19259182  0.57049535  0.18779907    -0.08620
C190        C  0.15156837  0.54818259  0.20080831     0.30260
F191        F  0.14128615  0.54220593  0.24550800    -0.19140
H192        H  0.08702223  0.52091799  0.17854416     0.18620
H193        H  0.23373542  0.59439439  0.13109932     0.18630
F194        F  0.18072132  0.57304127  0.06415672    -0.19130
C195        C  0.20053731  0.99275293  0.14261668    -0.20570
C196        C  0.19018692  0.99969529  0.18869269    -0.08610
C197        C  0.14911808  0.02249619  0.20085386     0.30250
C198        C  0.11759796  0.03520972  0.16714687    -0.20570
C199        C  0.12660347  0.02482334  0.12105365    -0.08620
C200        C  0.16923366  0.00531152  0.10898832     0.30260
F201        F  0.18015046  0.99660055  0.06482352    -0.19140
H202        H  0.23214235  0.97509194  0.13284744     0.18620
H203        H  0.08512600  0.05034689  0.17735792     0.18630
F204        F  0.13817988  0.02885640  0.24532811    -0.19130
C205        C  0.24893261  0.81262902  0.21223607    -0.20570
C206        C  0.24834124  0.83885014  0.25375441    -0.08610
C207        C  0.24860172  0.81106022  0.29467708     0.30250
C208        C  0.24915854  0.75812412  0.29382332    -0.20570
C209        C  0.24946917  0.73189262  0.25227596    -0.08620
C210        C  0.24960928  0.75975804  0.21136448     0.30260
F211        F  0.25168741  0.73601527  0.17049519    -0.19140
H212        H  0.24958760  0.83319371  0.18030130     0.18620
H213        H  0.24854399  0.73755143  0.32574856     0.18630
F214        F  0.24696676  0.83496703  0.33548333    -0.19130
C215        C  0.33178337  0.55460071  0.39047545    -0.20570
C216        C  0.37616846  0.54383346  0.37656048    -0.08610
C217        C  0.38612069  0.54236428  0.32972171     0.30250
C218        C  0.35284873  0.55518829  0.29779269    -0.20570
C219        C  0.30937144  0.56895138  0.31218345    -0.08620
C220        C  0.29861922  0.56697028  0.35859779     0.30260
F221        F  0.25676995  0.58026101  0.37320902    -0.19140
H222        H  0.32321332  0.55552039  0.42631613     0.18620
H223        H  0.36175599  0.55753784  0.26208208     0.18630
F224        F  0.42875573  0.53292190  0.31502593    -0.19130
C225        C  0.35669527  0.99491521  0.29851831    -0.20570
C226        C  0.31094816  0.00204591  0.30871710    -0.08610
C227        C  0.29871800  0.02634332  0.34934683     0.30250
C228        C  0.33204647  0.03991676  0.38089400    -0.20570
C229        C  0.37772924  0.02888902  0.37226233    -0.08620
C230        C  0.38988897  0.00830609  0.32981180     0.30260
F231        F  0.43376998  0.99902728  0.31928629    -0.19140
H232        H  0.36654244  0.97627432  0.26722325     0.18620
H233        H  0.32188225  0.05584613  0.41325412     0.18630
F234        F  0.25454932  0.03311659  0.36005240    -0.19130
C235        C  0.46123835  0.26047979  0.50531473    -0.20570
C236        C  0.50062268  0.23331018  0.49403497    -0.08610
C237        C  0.53986233  0.26066518  0.48226472     0.30250
C238        C  0.53929545  0.31370988  0.48152519    -0.20570
C239        C  0.50010275  0.34036881  0.49333120    -0.08620
C240        C  0.46108240  0.31350240  0.50542307     0.30260
F241        F  0.42271783  0.33861540  0.51691918    -0.19140
H242        H  0.43061114  0.24070199  0.51465031     0.18620
H243        H  0.56971817  0.33406107  0.47245765     0.18630
F244        F  0.57874155  0.23637971  0.47113328    -0.19130
C245        C  0.53961666  0.81410261  0.51054094    -0.20570
C246        C  0.49869003  0.84039626  0.50704052    -0.08610
C247        C  0.45824742  0.81327210  0.50321281     0.30250
C248        C  0.45883183  0.76024343  0.50289262    -0.20570
C249        C  0.49986457  0.73336289  0.50601131    -0.08620
C250        C  0.54041923  0.76109980  0.50994017     0.30260
F251        F  0.58096812  0.73730572  0.51302686    -0.19140
H252        H  0.57107095  0.83472623  0.51320906     0.18620
H253        H  0.42710332  0.74027878  0.49979887     0.18630
F254        F  0.41824478  0.83813096  0.49958874    -0.19130
C255        C  0.14194972  0.49378860  0.79751700    -0.20570
C256        C  0.18789509  0.49971169  0.80722478    -0.08610
C257        C  0.20101600  0.52204141  0.84846407     0.30250
C258        C  0.16830093  0.53530935  0.88080829    -0.20570
C259        C  0.12237578  0.52578038  0.87240321    -0.08620
C260        C  0.10937072  0.50680121  0.82965961     0.30260
F261        F  0.06520301  0.49900079  0.81956031    -0.19140
H262        H  0.13144950  0.47654258  0.76582055     0.18620
H263        H  0.17905407  0.54987371  0.91347802     0.18630
F264        F  0.24541306  0.52724170  0.85881954    -0.19130
C265        C  0.33243810  0.53403611  0.61660160    -0.20570
C266        C  0.37855395  0.52829921  0.62668503    -0.08610
C267        C  0.39140330  0.51270677  0.67066066     0.30250
C268        C  0.35870877  0.49928709  0.70259799    -0.20570
C269        C  0.31282663  0.50136622  0.69136507    -0.08620
C270        C  0.29964767  0.52025769  0.64867782     0.30260
F271        F  0.25536908  0.52152401  0.63685154    -0.19140
H272        H  0.32180468  0.54582442  0.58291726     0.18620
H273        H  0.36924209  0.48454589  0.73538628     0.18630
F274        F  0.43563422  0.50844612  0.68218532    -0.19130
C275        C  0.14189458  0.08137487  0.79836684    -0.20570
C276        C  0.18750663  0.07266956  0.80834200    -0.08610
C277        C  0.19920047  0.04777258  0.84893155     0.30250
C278        C  0.16556756  0.03477761  0.88044731    -0.20570
C279        C  0.12006623  0.04698677  0.87191200    -0.08620
C280        C  0.10839183  0.06859927  0.82966536     0.30260
F281        F  0.06472033  0.07910328  0.81919551    -0.19140
H282        H  0.13243474  0.10054184  0.76712317     0.18620
H283        H  0.17540987  0.01805722  0.91266008     0.18630
F284        F  0.24320792  0.03963902  0.85956398    -0.19130
C285        C  0.35313227  0.05469885  0.70268283    -0.20570
C286        C  0.30990498  0.07054187  0.68933590    -0.08610
C287        C  0.29853436  0.07085281  0.64301928     0.30250
C288        C  0.33091246  0.05861067  0.61030597    -0.20570
C289        C  0.37511667  0.04565404  0.62325560    -0.08620
C290        C  0.38559338  0.04198760  0.66992418     0.30260
F291        F  0.42807845  0.03035051  0.68379884    -0.19140
H292        H  0.36256683  0.05530043  0.73830399     0.18620
H293        H  0.32189409  0.06123231  0.57464208     0.18630
F294        F  0.25691229  0.08623591  0.62939317    -0.19130
C295        C  0.26833792  0.25957950  0.78820652    -0.20570
C296        C  0.25237357  0.23277914  0.75038241    -0.08610
C297        C  0.23629356  0.25936496  0.71222641     0.30250
C298        C  0.23647124  0.31229852  0.71194632    -0.20570
C299        C  0.25241116  0.33908717  0.74979234    -0.08620
C300        C  0.26850011  0.31250305  0.78792862     0.30260
F301        F  0.28499208  0.33780827  0.82445466    -0.19140
H302        H  0.28096797  0.23941242  0.81773698     0.18620
H303        H  0.22368365  0.33247706  0.68248955     0.18630
F304        F  0.21952823  0.23406968  0.67581599    -0.19130
C305        C  0.61349218  0.03911847  0.66827092    -0.20570
C306        C  0.62485561  0.04274107  0.62192394    -0.08610
C307        C  0.66949755  0.05499169  0.60973868     0.30250
C308        C  0.70098957  0.06732448  0.64324568    -0.20570
C309        C  0.68856243  0.06742849  0.68923882    -0.08620
C310        C  0.64504014  0.05182949  0.70177978     0.30260
F311        F  0.63206466  0.05288144  0.74606747    -0.19140
H312        H  0.57932788  0.02984327  0.67846392     0.18620
H313        H  0.73440962  0.07970169  0.63317291     0.18630
F314        F  0.68221510  0.05697788  0.56538403    -0.19130
C315        C  0.88527297  0.05566949  0.83175338    -0.20570
C316        C  0.87320406  0.04563861  0.87709490    -0.08610
C317        C  0.82720577  0.04471230  0.88912472     0.30250
C318        C  0.79420572  0.05702688  0.85678426    -0.20570
C319        C  0.80667077  0.06951391  0.81211484    -0.08620
C320        C  0.85228075  0.06724446  0.79941184     0.30260
F321        F  0.86504393  0.07943297  0.75639248    -0.19140
H322        H  0.92048917  0.05630807  0.82174645     0.18620
H323        H  0.75918754  0.05973224  0.86720758     0.18630
F324        F  0.81445633  0.03623193  0.93285219    -0.19130
C325        C  0.85835592  0.47403707  0.80357345    -0.20570
C326        C  0.81497471  0.49506586  0.80620577    -0.08610
C327        C  0.80612886  0.53248677  0.83901255     0.30250
C328        C  0.83942373  0.54531511  0.87101559    -0.20570
C329        C  0.88179488  0.52096224  0.87054840    -0.08620
C330        C  0.89131349  0.48642319  0.83524678     0.30260
F331        F  0.93185574  0.46257201  0.83214727    -0.19140
H332        H  0.86609775  0.44580970  0.77805038     0.18620
H333        H  0.83130273  0.57238090  0.89736590     0.18630
F334        F  0.76458033  0.55394150  0.84214357    -0.19130
C335        C  0.70065215  0.51967986  0.65053109    -0.20570
C336        C  0.68640883  0.50310198  0.69359029    -0.08610
C337        C  0.64022673  0.50279029  0.70405365     0.30250
C338        C  0.60852361  0.51511342  0.67076119    -0.20570
C339        C  0.62240350  0.52830472  0.62663098    -0.08620
C340        C  0.66883813  0.53258020  0.61715374     0.30260
F341        F  0.68336877  0.54463769  0.57467646    -0.19140
H342        H  0.73620355  0.51914467  0.64180745     0.18620
H343        H  0.57293199  0.51218880  0.67891040     0.18630
F344        F  0.62579464  0.48699601  0.74556856    -0.19130
C345        C  0.70324238  0.25708540  0.75065942    -0.20570
C346        C  0.74435808  0.23043816  0.75070437    -0.08610
C347        C  0.78504905  0.25773768  0.74973833     0.30250
C348        C  0.78446228  0.31056962  0.74950379    -0.20570
C349        C  0.74342025  0.33737602  0.75033758    -0.08620
C350        C  0.70264222  0.31006571  0.75059569     0.30260
F351        F  0.66227236  0.33439392  0.75238705    -0.19140
H352        H  0.67151773  0.23679985  0.75165489     0.18620
H353        H  0.81629142  0.33063111  0.74825336     0.18630
F354        F  0.82542596  0.23340236  0.74791793    -0.19130
C355        C  0.84867476  0.54835149  0.19958656    -0.20570
C356        C  0.80781059  0.57025672  0.18550467    -0.08610
C357        C  0.79914172  0.57619210  0.13890726     0.30250
C358        C  0.83206792  0.56358459  0.10696124    -0.20570
C359        C  0.87440394  0.54497791  0.12083724    -0.08620
C360        C  0.88185116  0.53556036  0.16751608     0.30260
F361        F  0.92220288  0.51768547  0.18249498    -0.19140
H362        H  0.85601228  0.54425794  0.23553446     0.18620
H363        H  0.82504244  0.57049426  0.07129790     0.18630
F364        F  0.75976585  0.59720330  0.12452641    -0.19130
C365        C  0.70264207  0.57649346  0.35847949    -0.20570
C366        C  0.69301245  0.57071608  0.31214940    -0.08610
C367        C  0.65181014  0.54898564  0.29898436     0.30250
C368        C  0.61948794  0.53632203  0.33198525    -0.20570
C369        C  0.62784485  0.54570448  0.37834379    -0.08620
C370        C  0.67058830  0.56396814  0.39136401     0.30260
F371        F  0.68089710  0.57161292  0.43582553    -0.19140
H372        H  0.73427331  0.59332407  0.36906168     0.18620
H373        H  0.58695717  0.52216065  0.32106962     0.18630
F374        F  0.64151551  0.54377220  0.25424483    -0.19130
C375        C  0.85621161  0.01669612  0.20565802    -0.20570
C376        C  0.81261859  0.00242686  0.19231339    -0.08610
C377        C  0.80072056  0.00428664  0.14618078     0.30250
C378        C  0.83293643  0.01698885  0.11349481    -0.20570
C379        C  0.87746945  0.02829626  0.12631916    -0.08620
C380        C  0.88851172  0.02998495  0.17290569     0.30260
F381        F  0.93130841  0.04018007  0.18654451    -0.19140
H382        H  0.86594354  0.01456244  0.24115236     0.18620
H383        H  0.82353389  0.01590984  0.07787568     0.18630
F384        F  0.75871431  0.99047972  0.13259914    -0.19130
C385        C  0.64201141  0.99583974  0.29728838    -0.20570
C386        C  0.68778548  0.00161781  0.30799003    -0.08610
C387        C  0.70005347  0.02386274  0.34950396     0.30250
C388        C  0.66671714  0.03694258  0.38121958    -0.20570
C389        C  0.62095154  0.02740296  0.37192538    -0.08620
C390        C  0.60876970  0.00874851  0.32881901     0.30260
F391        F  0.56480042  0.00112404  0.31778135    -0.19140
H392        H  0.63215195  0.97872027  0.26533018     0.18620
H393        H  0.67688055  0.05134081  0.41413750     0.18630
F394        F  0.74422927  0.02899499  0.36080270    -0.19130
C395        C  0.75021874  0.75876640  0.29082560    -0.20570
C396        C  0.75121273  0.73276443  0.24915292    -0.08610
C397        C  0.75256550  0.76099153  0.20841710     0.30250
C398        C  0.75325289  0.81389358  0.20966076    -0.20570
C399        C  0.75216326  0.83976937  0.25133373    -0.08620
C400        C  0.75055123  0.81164972  0.29202461     0.30260
F401        F  0.75053304  0.83520854  0.33302787    -0.19140
H402        H  0.74986342  0.73805808  0.32271000     0.18620
H403        H  0.75375815  0.83477521  0.17786006     0.18630
F404        F  0.75179035  0.73764923  0.16732542    -0.19130
loop_ 
_geom_bond_atom_site_label_1 
_geom_bond_atom_site_label_2 
_geom_bond_distance 
_geom_bond_site_symmetry_2 
_ccdc_geom_bond_type 
C1            C2   1.402       .  A
C1            C6   1.404   1_565  A
C1          C376   1.470   1_565  S
C2            C3   1.401       .  A
C2            H7   1.084       .  S
C3            C4   1.400       .  A
C3          C399   1.482       .  S
C4            C5   1.403       .  A
C4            H8   1.084       .  S
C5            C6   1.404   1_565  A
C5          C386   1.472   1_565  S
C6            H9   1.084       .  S
C10          C11   1.403       .  A
C10          C15   1.405       .  A
C10         C356   1.473       .  S
C11          C12   1.401       .  A
C11          H16   1.084       .  S
C12          C13   1.401       .  A
C12         C396   1.486       .  S
C13          C14   1.403       .  A
C13          H17   1.084       .  S
C14          C15   1.405       .  A
C14         C366   1.474       .  S
C15          H18   1.084       .  S
C19          C20   1.405       .  A
C19          C24   1.406       .  A
C19         C326   1.480       .  S
C20          C21   1.399       .  A
C20          H25   1.085       .  S
C21          C22   1.399       .  A
C21         C349   1.484       .  S
C22          C23   1.403       .  A
C22          H26   1.084       .  S
C23          C24   1.406       .  A
C23         C336   1.471       .  S
C24          H27   1.083       .  S
C28          C29   1.402       .  A
C28          C33   1.405       .  A
C28         C319   1.472       .  S
C29          C30   1.401       .  A
C29          H34   1.084       .  S
C30          C31   1.399       .  A
C30         C346   1.481       .  S
C31          C32   1.402       .  A
C31          H35   1.084       .  S
C32          C33   1.405       .  A
C32         C309   1.470       .  S
C33          H36   1.084       .  S
C37          C38   1.403       .  A
C37          C42   1.407       .  A
C37         C276   1.474       .  S
C38          C39   1.396       .  A
C38          H43   1.085       .  S
C39          C40   1.396       .  A
C39         C296   1.471       .  S
C40          C41   1.402       .  A
C40          H44   1.085       .  S
C41          C42   1.407       .  A
C41         C286   1.472       .  S
C42          H45   1.084       .  S
C46          C47   1.403       .  A
C46          C51   1.405       .  A
C46         C269   1.470       .  S
C47          C48   1.396       .  A
C47          H52   1.084       .  S
C48          C49   1.397       .  A
C48         C299   1.470       .  S
C49          C50   1.403       .  A
C49          H53   1.085       .  S
C50          C51   1.405       .  A
C50         C256   1.471       .  S
C51          H54   1.084       .  S
Zn55         O59   1.973   1_565  S
Zn55         O60   2.024   1_565  S
Zn55         O64   2.030       .  S
Zn55         O71   2.027   1_565  S
Zn56         O59   1.963       .  S
Zn56         O61   2.025       .  S
Zn56         O63   2.010       .  S
Zn56         O67   2.023       .  S
Zn57         O59   1.944   1_565  S
Zn57         O62   2.014       .  S
Zn57         O65   1.999   1_565  S
Zn57         O68   1.992   1_565  S
Zn58         O59   1.965       .  S
Zn58         O66   2.034       .  S
Zn58         O69   2.027       .  S
Zn58         O70   2.012       .  S
O60          C72   1.274       .  A
O61          C73   1.273       .  A
O62          C74   1.272       .  A
O63          C72   1.274       .  A
O64          C74   1.274       .  A
O65          C73   1.272       .  A
O66          C75   1.274       .  A
O67          C76   1.275       .  A
O68          C75   1.271       .  A
O69          C76   1.276       .  A
O70          C77   1.274       .  A
O71          C77   1.274       .  A
C72         C306   1.478       .  S
C73         C389   1.477       .  S
C74         C246   1.468       .  S
C75         C229   1.479       .  S
C76         C236   1.487       .  S
C77         C289   1.479       .  S
Zn78         O82   1.958       .  S
Zn78         O83   2.018       .  S
Zn78         O87   2.002       .  S
Zn78         O94   2.022       .  S
Zn79         O82   1.964       .  S
Zn79         O84   2.004       .  S
Zn79         O86   2.027       .  S
Zn79         O90   2.029       .  S
Zn80         O82   1.977       .  S
Zn80         O85   2.035       .  S
Zn80         O88   2.036       .  S
Zn80         O91   2.034       .  S
Zn81         O82   1.946       .  S
Zn81         O89   2.015       .  S
Zn81         O92   1.994       .  S
Zn81         O93   2.002       .  S
O83          C95   1.274       .  A
O84          C96   1.274       .  A
O85          C97   1.275       .  A
O86          C95   1.275       .  A
O87          C97   1.273       .  A
O88          C96   1.276       .  A
O89          C98   1.273       .  A
O90          C99   1.273       .  A
O91          C98   1.275       .  A
O92          C99   1.271       .  A
O93         C100   1.272       .  A
O94         C100   1.272       .  A
C95         C249   1.489       .  S
C96         C216   1.478       .  S
C97         C369   1.482       .  S
C98         C239   1.470       .  S
C99         C266   1.476       .  S
C100        C339   1.475       .  S
C101        C102   1.403       .  A
C101        C106   1.405   1_565  A
C101        C226   1.472   1_565  S
C102        C103   1.400       .  A
C102        H107   1.084       .  S
C103        C104   1.400       .  A
C103        C206   1.482       .  S
C104        C105   1.402       .  A
C104        H108   1.084       .  S
C105        C106   1.405   1_565  A
C105        C196   1.472       .  S
C106        H109   1.084       .  S
C110        C111   1.403       .  A
C110        C115   1.405       .  A
C110        C219   1.472       .  S
C111        C112   1.401       .  A
C111        H116   1.084       .  S
C112        C113   1.400       .  A
C112        C209   1.484       .  S
C113        C114   1.402       .  A
C113        H117   1.084       .  S
C114        C115   1.405       .  A
C114        C189   1.472       .  S
C115        H118   1.084       .  S
Zn119       O123   1.975   1_455  S
Zn119       O124   2.030   1_455  S
Zn119       O128   2.023       .  S
Zn119       O135   2.022       .  S
Zn120       O123   1.959   1_566  S
Zn120       O125   2.024   1_565  S
Zn120       O127   2.002   1_566  S
Zn120       O131   2.022       .  S
Zn121       O123   1.946   1_556  S
Zn121       O126   2.015       .  S
Zn121       O129   2.008       .  S
Zn121       O132   2.004   1_655  S
Zn122       O123   1.961   1_466  S
Zn122       O130   2.028   1_565  S
Zn122       O133   2.020       .  S
Zn122       O134   2.010   1_566  S
O124        C136   1.274       .  A
O125        C137   1.273       .  A
O126        C138   1.275   1_556  A
O127        C136   1.273       .  A
O128        C138   1.274   1_455  A
O129        C137   1.272       .  A
O130        C139   1.274       .  A
O131        C140   1.275       .  A
O132        C139   1.273       .  A
O133        C140   1.275   1_455  A
O134        C141   1.274       .  A
O135        C141   1.273       .  A
C136        C379   1.477       .  S
C137        C316   1.476       .  S
C138        C169   1.480       .  S
C139        C279   1.481       .  S
C140        C176   1.488       .  S
C141        C199   1.481       .  S
Zn142       O146   1.958       .  S
Zn142       O147   2.018       .  S
Zn142       O151   2.030       .  S
Zn142       O158   2.003   1_556  S
Zn143       O146   1.967   1_655  S
Zn143       O148   2.045       .  S
Zn143       O150   2.025       .  S
Zn143       O154   2.008   1_556  S
Zn144       O146   1.931       .  S
Zn144       O149   1.991       .  S
Zn144       O152   1.976   1_455  S
Zn144       O155   1.994       .  S
Zn145       O146   1.980   1_554  S
Zn145       O153   2.039       .  S
Zn145       O156   2.034   1_455  S
Zn145       O157   2.035       .  S
O147        C159   1.274       .  A
O148        C160   1.274       .  A
O149        C161   1.271       .  A
O150        C159   1.276   1_655  A
O151        C161   1.273       .  A
O152        C160   1.268       .  A
O153        C162   1.275       .  A
O154        C163   1.275       .  A
O155        C162   1.271   1_556  A
O156        C163   1.276       .  A
O157        C164   1.276       .  A
O158        C164   1.273       .  A
C159        C179   1.488   1_455  S
C160        C329   1.485       .  S
C161        C259   1.477       .  S
C162        C166   1.478   1_455  S
C163        C359   1.483       .  S
C164        C186   1.482       .  S
C165        C166   1.404   1_455  A
C165        C170   1.402       .  A
C165        H172   1.083       .  S
C166        C167   1.408   1_554  A
C167        C168   1.395       .  A
C167        F174   1.358       .  S
C168        C169   1.403   1_556  A
C168        H173   1.083       .  S
C169        C170   1.409   1_655  A
C170        F171   1.357       .  S
C175        C176   1.406   1_455  A
C175        C180   1.398       .  A
C175        H182   1.082       .  S
C176        C177   1.410       .  A
C177        C178   1.399       .  A
C177        F184   1.357       .  S
C178        C179   1.407       .  A
C178        H183   1.082       .  S
C179        C180   1.410   1_655  A
C180        F181   1.357       .  S
C185        C186   1.408       .  A
C185        C190   1.402       .  A
C185        H192   1.083       .  S
C186        C187   1.410       .  A
C187        C188   1.394       .  A
C187        F194   1.358       .  S
C188        C189   1.400       .  A
C188        H193   1.084       .  S
C189        C190   1.404       .  A
C190        F191   1.357       .  S
C195        C196   1.401       .  A
C195        C200   1.394   1_565  A
C195        H202   1.084       .  S
C196        C197   1.403   1_565  A
C197        C198   1.401       .  A
C197        F204   1.357       .  S
C198        C199   1.408       .  A
C198        H203   1.083       .  S
C199        C200   1.408       .  A
C200        F201   1.358   1_545  S
C205        C206   1.404       .  A
C205        C210   1.396       .  A
C205        H212   1.083       .  S
C206        C207   1.407       .  A
C207        C208   1.398       .  A
C207        F214   1.357       .  S
C208        C209   1.405       .  A
C208        H213   1.083       .  S
C209        C210   1.408       .  A
C210        F211   1.358       .  S
C215        C216   1.405       .  A
C215        C220   1.395       .  A
C215        H222   1.084       .  S
C216        C217   1.408       .  A
C217        C218   1.402       .  A
C217        F224   1.357       .  S
C218        C219   1.403       .  A
C218        H223   1.084       .  S
C219        C220   1.402       .  A
C220        F221   1.358       .  S
C225        C226   1.400   1_565  A
C225        C230   1.393   1_565  A
C225        H232   1.084       .  S
C226        C227   1.404       .  A
C227        C228   1.402       .  A
C227        F234   1.357       .  S
C228        C229   1.407       .  A
C228        H233   1.083       .  S
C229        C230   1.408       .  A
C230        F231   1.358   1_545  S
C235        C236   1.408       .  A
C235        C240   1.400       .  A
C235        H242   1.082       .  S
C236        C237   1.412       .  A
C237        C238   1.400       .  A
C237        F244   1.357       .  S
C238        C239   1.400       .  A
C238        H243   1.083       .  S
C239        C240   1.402       .  A
C240        F241   1.358       .  S
C245        C246   1.399       .  A
C245        C250   1.399       .  A
C245        H252   1.083       .  S
C246        C247   1.401       .  A
C247        C248   1.400       .  A
C247        F254   1.357       .  S
C248        C249   1.409       .  A
C248        H253   1.082       .  S
C249        C250   1.413       .  A
C250        F251   1.357       .  S
C255        C256   1.400       .  A
C255        C260   1.393       .  A
C255        H262   1.084       .  S
C256        C257   1.404       .  A
C257        C258   1.402       .  A
C257        F264   1.357       .  S
C258        C259   1.406       .  A
C258        H263   1.083       .  S
C259        C260   1.408       .  A
C260        F261   1.358       .  S
C265        C266   1.406       .  A
C265        C270   1.401       .  A
C265        H272   1.084       .  S
C266        C267   1.408       .  A
C267        C268   1.394       .  A
C267        F274   1.358       .  S
C268        C269   1.400       .  A
C268        H273   1.084       .  S
C269        C270   1.404       .  A
C270        F271   1.357       .  S
C275        C276   1.401       .  A
C275        C280   1.394       .  A
C275        H282   1.084       .  S
C276        C277   1.404       .  A
C277        C278   1.403       .  A
C277        F284   1.357       .  S
C278        C279   1.408       .  A
C278        H283   1.083       .  S
C279        C280   1.408       .  A
C280        F281   1.358       .  S
C285        C286   1.402       .  A
C285        C290   1.401       .  A
C285        H292   1.084       .  S
C286        C287   1.402       .  A
C287        C288   1.396       .  A
C287        F294   1.358       .  S
C288        C289   1.405       .  A
C288        H293   1.084       .  S
C289        C290   1.409       .  A
C290        F291   1.357       .  S
C295        C296   1.402       .  A
C295        C300   1.397       .  A
C295        H302   1.083       .  S
C296        C297   1.404       .  A
C297        C298   1.397       .  A
C297        F304   1.358       .  S
C298        C299   1.402       .  A
C298        H303   1.083       .  S
C299        C300   1.404       .  A
C300        F301   1.357       .  S
C305        C306   1.406       .  A
C305        C310   1.400       .  A
C305        H312   1.084       .  S
C306        C307   1.408       .  A
C307        C308   1.396       .  A
C307        F314   1.358       .  S
C308        C309   1.401       .  A
C308        H313   1.084       .  S
C309        C310   1.403       .  A
C310        F311   1.357       .  S
C315        C316   1.404       .  A
C315        C320   1.396       .  A
C315        H322   1.084       .  S
C316        C317   1.408       .  A
C317        C318   1.401       .  A
C317        F324   1.357       .  S
C318        C319   1.402       .  A
C318        H323   1.084       .  S
C319        C320   1.403       .  A
C320        F321   1.358       .  S
C325        C326   1.401       .  A
C325        C330   1.389       .  A
C325        H332   1.083       .  S
C326        C327   1.406       .  A
C327        C328   1.406       .  A
C327        F334   1.357       .  S
C328        C329   1.409       .  A
C328        H333   1.082       .  S
C329        C330   1.411       .  A
C330        F331   1.358       .  S
C335        C336   1.403       .  A
C335        C340   1.401       .  A
C335        H342   1.084       .  S
C336        C337   1.402       .  A
C337        C338   1.394       .  A
C337        F344   1.358       .  S
C338        C339   1.404       .  A
C338        H343   1.084       .  S
C339        C340   1.408       .  A
C340        F341   1.358       .  S
C345        C346   1.405       .  A
C345        C350   1.399       .  A
C345        H352   1.083       .  S
C346        C347   1.406       .  A
C347        C348   1.395       .  A
C347        F354   1.358       .  S
C348        C349   1.406       .  A
C348        H353   1.083       .  S
C349        C350   1.408       .  A
C350        F351   1.357       .  S
C355        C356   1.403       .  A
C355        C360   1.403       .  A
C355        H362   1.084       .  S
C356        C357   1.402       .  A
C357        C358   1.394       .  A
C357        F364   1.358       .  S
C358        C359   1.406       .  A
C358        H363   1.084       .  S
C359        C360   1.411       .  A
C360        F361   1.357       .  S
C365        C366   1.400       .  A
C365        C370   1.394       .  A
C365        H372   1.084       .  S
C366        C367   1.404       .  A
C367        C368   1.403       .  A
C367        F374   1.357       .  S
C368        C369   1.408       .  A
C368        H373   1.083       .  S
C369        C370   1.409       .  A
C370        F371   1.358       .  S
C375        C376   1.402       .  A
C375        C380   1.401       .  A
C375        H382   1.084       .  S
C376        C377   1.402       .  A
C377        C378   1.395       .  A
C377        F384   1.358   1_545  S
C378        C379   1.405       .  A
C378        H383   1.084       .  S
C379        C380   1.409       .  A
C380        F381   1.357       .  S
C385        C386   1.401   1_565  A
C385        C390   1.394   1_565  A
C385        H392   1.084       .  S
C386        C387   1.404       .  A
C387        C388   1.401       .  A
C387        F394   1.357       .  S
C388        C389   1.406       .  A
C388        H393   1.083       .  S
C389        C390   1.408       .  A
C390        F391   1.358       .  S
C395        C396   1.406       .  A
C395        C400   1.397       .  A
C395        H402   1.084       .  S
C396        C397   1.409       .  A
C397        C398   1.397       .  A
C397        F404   1.357       .  S
C398        C399   1.404       .  A
C398        H403   1.084       .  S
C399        C400   1.407       .  A
C400        F401   1.357       .  S
