geometry optimzed in LAMMPS
_audit_creation_date              2020-11-30 
_audit_creation_method            'lammps2cif' 
_symmetry_space_group_name_H-M    'P1' 
_symmetry_Int_Tables_number       1 
_symmetry_cell_setting            triclinic 
loop_ 
_symmetry_equiv_pos_as_xyz 
  x,y,z 
_cell_length_a                    46.38537656 
_cell_length_b                    44.52614383490478 
_cell_length_c                    45.55209760338802 
_cell_angle_alpha                 89.91370895611415 
_cell_angle_beta                  90.04789241767435 
_cell_angle_gamma                 89.99137150940682 
loop_ 
_atom_site_label 
_atom_site_type_symbol 
_atom_site_fract_x 
_atom_site_fract_y 
_atom_site_fract_z 
_atom_site_charge 
C1          C  0.33053569  0.35118832  0.14999887    -0.01700
C2          C  0.33574913  0.19069008  0.27988088    -0.01700
C3          C  0.21281789  0.20180906  0.13914459    -0.01700
C4          C  0.21822302  0.33621990  0.29547947    -0.01700
C5          C  0.31800969  0.18269918  0.66027059    -0.01700
C6          C  0.20727860  0.20601778  0.79830723    -0.01700
C7          C  0.21124714  0.33403271  0.63530669    -0.01700
C8          C  0.32897549  0.34825556  0.78385630    -0.01700
C9          C  0.46072100  0.46022789  0.03383615     0.43200
N10         N  0.46983356  0.49012011  0.99801229     0.02100
C11         C  0.59090765  0.49577145  0.90938886    -0.05700
H12         H  0.61351815  0.50737707  0.01920540     0.07600
C13         C  0.55188247  0.60386706  0.01963918    -0.06100
Co14       Co  0.52284310  0.47277766  0.96465482     0.74200
N15         N  0.57420884  0.49852638  0.99520969    -0.25300
Co16       Co  0.57093954  0.53243783  0.96372328     0.74100
C17         C  0.57941260  0.59434966  0.03215535     0.43300
N18         N  0.48297225  0.57962876  0.99855439     0.01700
N19         N  0.56869686  0.56530049  0.99629002     0.01900
N20         N  0.56035830  0.45613975  0.91117208    -0.46100
H21         H  0.50071156  0.43129748  0.02379521     0.07600
N22         N  0.55570035  0.47599584  0.99574515     0.02100
N23         N  0.56671255  0.56602740  0.93210356     0.01900
C24         C  0.57532701  0.59631402  0.89664288     0.43500
N25         N  0.46481947  0.55677406  0.99863777    -0.24700
C26         C  0.48533677  0.45005997  0.91246691    -0.05700
N27         N  0.45113152  0.48473454  0.01935274    -0.45800
N28         N  0.58496418  0.57147070  0.91044405    -0.46100
C29         C  0.45837466  0.45913019  0.89852721     0.43300
N30         N  0.55429358  0.47622687  0.93179192     0.02100
N31         N  0.46393236  0.55728450  0.93433885    -0.24800
N32         N  0.49121750  0.47054183  0.99745075    -0.25200
N33         N  0.48168437  0.58048340  0.93466809     0.01800
H34         H  0.42700111  0.54629333  0.90759894     0.07700
H35         H  0.53584924  0.62556144  0.90778262     0.07700
N36         N  0.57213053  0.49934836  0.93141910    -0.25300
N37         N  0.54710889  0.58459853  0.99744470    -0.24900
N38         N  0.46857676  0.49016040  0.93324702     0.02100
C39         C  0.58685294  0.46480294  0.02870803     0.43500
C40         C  0.44649419  0.56025785  0.02118122    -0.06200
N41         N  0.54563376  0.58589708  0.93339908    -0.24900
H42         H  0.53848913  0.62286930  0.02531860     0.07700
N43         N  0.56264955  0.45519964  0.01528023    -0.46100
H44         H  0.42869670  0.54553183  0.02647178     0.07700
C45         C  0.45242186  0.58985626  0.89957348     0.43400
C46         C  0.48719172  0.45053633  0.01922337    -0.05700
Co47       Co  0.46618639  0.52352546  0.96599351     0.73800
N48         N  0.47771475  0.59930568  0.01971677    -0.45800
C49         C  0.58301955  0.46722049  0.89598290     0.43600
N50         N  0.44906958  0.48402584  0.91269971    -0.45800
Co51       Co  0.51428571  0.58331302  0.96607411     0.73900
C52         C  0.54937014  0.60621732  0.91189998    -0.06200
C53         C  0.59473747  0.49350840  0.01544891    -0.05700
N54         N  0.48999467  0.47061590  0.93344464    -0.25300
N55         N  0.58863588  0.57062874  0.01638339    -0.46000
H56         H  0.60881276  0.51049986  0.90449350     0.07600
C57         C  0.44483102  0.56107781  0.91260299    -0.06100
Cl58       Cl  0.51855754  0.52798550  0.96512022    -0.49100
C59         C  0.45517257  0.58841004  0.03508015     0.43400
H60         H  0.49877620  0.43073332  0.90807383     0.07600
N61         N  0.47527150  0.60084727  0.91442599    -0.45900
C62         C  0.33155900  0.69381614  0.15745927    -0.01700
C63         C  0.21583922  0.83874582  0.13911932    -0.01700
C64         C  0.21206203  0.69817924  0.29106532    -0.01700
C65         C  0.32072468  0.85216093  0.29205043    -0.01700
C66         C  0.45412637  0.96081589  0.40350406     0.43200
N67         N  0.48301427  0.96997742  0.43946002     0.02100
C68         C  0.48160486  0.09738976  0.52874038    -0.05700
H69         H  0.49913326  0.11853151  0.41589878     0.07600
C70         C  0.59253349  0.05918680  0.42516008    -0.06100
Co71       Co  0.46495802  0.02529885  0.47255064     0.74200
N72         N  0.48910971  0.07958642  0.44245960    -0.25300
Co73       Co  0.52026501  0.07783266  0.47576066     0.74100
C74         C  0.58453639  0.08789056  0.41217474     0.43300
N75         N  0.56897232  0.98679648  0.44320456     0.01700
N76         N  0.55342712  0.07619595  0.44492511     0.01900
N77         N  0.44602419  0.06280799  0.52556353    -0.46100
H78         H  0.42737584  0.00319987  0.41311642     0.07600
N79         N  0.46835289  0.05933138  0.44101642     0.02100
N80         N  0.55155829  0.07485715  0.50883196     0.01900
C81         C  0.58052027  0.08477160  0.54430807     0.43500
N82         N  0.54804289  0.96671032  0.44178152    -0.24700
C83         C  0.44361242  0.98615930  0.52538383    -0.05700
N84         N  0.47725512  0.95014762  0.41842335    -0.45800
N85         N  0.55747971  0.09523714  0.52923537    -0.46100
C86         C  0.45194083  0.95749417  0.53854957     0.43300
N87         N  0.46613216  0.05811132  0.50547571     0.02100
N88         N  0.54618305  0.96449488  0.50578116    -0.24800
N89         N  0.46452988  0.99255341  0.43966768    -0.25200
N90         N  0.56668281  0.98503298  0.50736960     0.01800
H91         H  0.53894520  0.92317326  0.52977687     0.07700
H92         H  0.60724035  0.04217332  0.53562636     0.07700
N93         N  0.48708140  0.07815307  0.50668491    -0.25300
N94         N  0.57213775  0.05383231  0.44528758    -0.24900
N95         N  0.48139450  0.96825209  0.50376480     0.02100
C96         C  0.46024585  0.08857538  0.40442940     0.43500
C97         C  0.55422295  0.94709408  0.42026939    -0.06200
N98         N  0.56990342  0.05215574  0.50910906    -0.24900
H99         H  0.61141915  0.04550503  0.42130374     0.07700
N100        N  0.45062983  0.06389340  0.41860490    -0.46100
H101        H  0.54173845  0.92738482  0.41473733     0.07700
C102        C  0.57773439  0.95342498  0.54128755     0.43400
C103        C  0.44568297  0.98886708  0.41762337    -0.05700
Co104      Co  0.51457426  0.96673495  0.47262733     0.73800
N105        N  0.58967255  0.98179533  0.42377321    -0.45800
C106        C  0.45438004  0.08699536  0.54124347     0.43600
N107        N  0.47536180  0.94756016  0.52386905    -0.45800
Co108      Co  0.56979421  0.01938461  0.47628102     0.73900
C109        C  0.58880210  0.05628151  0.53100264    -0.06200
C110        C  0.48561103  0.09926581  0.42031022    -0.05700
N111        N  0.46292206  0.99086643  0.50394361    -0.25300
N112        N  0.56021961  0.09732446  0.42558034    -0.46000
H113        H  0.49447654  0.11676396  0.53448118     0.07600
C114        C  0.55138610  0.94342164  0.52640287    -0.06100
Cl115      Cl  0.51739282  0.02229497  0.47432440    -0.49100
C116        C  0.58180625  0.95724605  0.40835481     0.43400
H117        H  0.42532761  0.00036851  0.53026102     0.07600
N118        N  0.58590577  0.97920249  0.52813023    -0.45900
C119        C  0.71556488  0.36089929  0.78237324    -0.01700
C120        C  0.82222044  0.34283917  0.64386745    -0.01700
C121        C  0.71015155  0.19533891  0.65752262    -0.01700
C122        C  0.82551116  0.21272354  0.80538969    -0.01700
C123        C  0.31543515  0.68812918  0.78606598    -0.01700
C124        C  0.32174029  0.84842686  0.65286626    -0.01700
C125        C  0.20096462  0.70279830  0.64424215    -0.01700
C126        C  0.21181659  0.83271642  0.80357398    -0.01700
C127        C  0.71031008  0.84767429  0.29075998    -0.01700
C128        C  0.81541838  0.69744884  0.29718976    -0.01700
C129        C  0.71108559  0.69174422  0.15556998    -0.01700
C130        C  0.82403187  0.84120145  0.14654087    -0.01700
C131        C  0.71622211  0.69140193  0.78668912    -0.01700
C132        C  0.82667004  0.69989221  0.64218344    -0.01700
C133        C  0.71724397  0.85430145  0.65511401    -0.01700
C134        C  0.82941648  0.82622867  0.80164407    -0.01700
C135        C  0.07631290  0.09351968  0.03310132     0.43200
N136        N  0.04912909  0.05577138  0.02345800     0.02100
C137        C  0.05239196  0.96787387  0.89656548    -0.05700
H138        H  0.03508617  0.07958279  0.87561194     0.07600
C139        C  0.93979912  0.07131881  0.93816441    -0.06100
Co140      Co  0.06786282  0.02388750  0.96845634     0.74200
N141        N  0.04316230  0.05478274  0.91569171    -0.25300
Co142      Co  0.01224976  0.02024010  0.91768039     0.74100
C143        C  0.94742134  0.08528434  0.91028911     0.43300
N144        N  0.96384863  0.05116231  0.00792006     0.01700
N145        N  0.97843177  0.05116325  0.92024293     0.01900
N146        N  0.08859687  0.97159770  0.92965658    -0.46100
H147        H  0.10313562  0.08613137  0.99122139     0.07600
N148        N  0.06389459  0.05646087  0.93553172     0.02100
N149        N  0.98153711  0.98583861  0.92067945     0.01900
C150        C  0.95286388  0.94942149  0.91086049     0.43500
N151        N  0.98484295  0.05209548  0.02748431    -0.24700
C152        C  0.09105322  0.97020719  0.00585726    -0.05700
N153        N  0.05409406  0.07693088  0.04335412    -0.45800
N154        N  0.97583830  0.96495373  0.90071742    -0.46100
C155        C  0.08328663  0.95605759  0.03363994     0.43300
N156        N  0.06751826  0.99078524  0.93560458     0.02100
N157        N  0.98818183  0.98674022  0.02762838    -0.24800
N158        N  0.06734592  0.05692043  0.00119958    -0.25200
N159        N  0.96722388  0.98514598  0.00806555     0.01800
H160        H  0.99795019  0.96074058  0.06647529     0.07700
H161        H  0.92612524  0.95787972  0.95257616     0.07700
N162        N  0.04622408  0.98931408  0.91637484    -0.25300
N163        N  0.96009211  0.05035646  0.94242713    -0.24900
N164        N  0.05237683  0.99030913  0.02356852     0.02100
C165        C  0.07397733  0.09172105  0.90485615     0.43500
C166        C  0.97898116  0.07377950  0.04707020    -0.06200
N167        N  0.96318544  0.98525484  0.94283782    -0.24900
H168        H  0.92131873  0.07520440  0.95211367     0.07700
N169        N  0.08273399  0.07807417  0.92981214    -0.46100
H170        H  0.99183731  0.07922798  0.06614895     0.07700
C171        C  0.95903692  0.94845292  0.03752501     0.43400
C172        C  0.08517200  0.08026853  0.00521922    -0.05700
Co173      Co  0.01869269  0.02123661  0.02610683     0.73800
N174        N  0.94349477  0.07138764  0.01303660    -0.45800
C175        C  0.08052283  0.95613251  0.90549489     0.43600
N176        N  0.05923971  0.96978236  0.04353533    -0.45800
Co177      Co  0.96309602  0.01797725  0.97538698     0.73900
C178        C  0.94442718  0.96284279  0.93869991    -0.06200
C179        C  0.04778046  0.07616697  0.89526209    -0.05700
N180        N  0.07082576  0.99125979  0.00149248    -0.25300
N181        N  0.97141137  0.07157916  0.90025423    -0.46000
H182        H  0.03959887  0.96247272  0.87742886     0.07600
C183        C  0.98465518  0.96458721  0.04732047    -0.06100
Cl184      Cl  0.01548553  0.02084557  0.97187108    -0.49100
C185        C  0.95164165  0.08663332  0.03726300     0.43400
H186        H  0.10963830  0.96634026  0.99204775     0.07600
N187        N  0.94918564  0.96264448  0.01327278    -0.45900
C188        C  0.70570246  0.20217246  0.29116502    -0.01700
C189        C  0.80995478  0.19255829  0.13918275    -0.01700
C190        C  0.69368763  0.33319761  0.14656722    -0.01700
C191        C  0.82606768  0.33331588  0.28520292    -0.01700
C192        C  0.08163156  0.45189119  0.39743033     0.43200
N193        N  0.04767357  0.46362496  0.42712405     0.02100
C194        C  0.96627506  0.59428483  0.42909976    -0.05700
H195        H  0.07355453  0.61190668  0.44486018     0.07600
C196        C  0.06442051  0.55171955  0.54236779    -0.06100
Co197      Co  0.01720341  0.52013840  0.40921569     0.74200
N198        N  0.04866467  0.57218093  0.43522804    -0.25300
Co199      Co  0.01650427  0.57056529  0.46740954     0.74100
C200        C  0.07750126  0.58042031  0.53429502     0.43300
N201        N  0.04625231  0.47842290  0.51472891     0.01700
N202        N  0.04706545  0.56763891  0.50103422     0.01900
N203        N  0.96808057  0.56263150  0.39023323    -0.46100
H204        H  0.07417425  0.49450501  0.36961984     0.07600
N205        N  0.04878024  0.55329892  0.41286687     0.02100
N206        N  0.98411377  0.56794697  0.49940688     0.01900
C207        C  0.95096509  0.57969873  0.53018057     0.43500
N208        N  0.04666501  0.45949779  0.49242227    -0.24700
C209        C  0.96609487  0.48088989  0.38560736    -0.05700
N210        N  0.06697650  0.44251618  0.42127952    -0.45800
N211        N  0.96495244  0.58906006  0.50582306    -0.46100
C212        C  0.95361702  0.45188901  0.39364298     0.43300
N213        N  0.98633583  0.55439439  0.41124214     0.02100
N214        N  0.98393129  0.45932680  0.49148491    -0.24800
N215        N  0.04830813  0.48606131  0.40814227    -0.25200
N216        N  0.98376904  0.47838543  0.51366864     0.01800
H217        H  0.96012498  0.41860650  0.48287054     0.07700
H218        H  0.95934826  0.53725294  0.55786146     0.07700
N219        N  0.98606749  0.57297065  0.43384279    -0.25300
N220        N  0.04595563  0.54561182  0.52043065    -0.24900
N221        N  0.98516370  0.46418960  0.42582380     0.02100
C222        C  0.08250081  0.58461269  0.40294244     0.43500
C223        C  0.06780563  0.43948404  0.49675486    -0.06200
N224        N  0.98377108  0.54550973  0.51840570    -0.24900
H225        H  0.06690573  0.53871484  0.56228152     0.07700
N226        N  0.06834834  0.56027257  0.39277930    -0.46100
H227        H  0.07259463  0.42050770  0.48279140     0.07700
C228        C  0.95123628  0.44614945  0.52462834     0.43400
C229        C  0.06933647  0.48077377  0.38858767    -0.05700
Co230      Co  0.01579492  0.46123924  0.45917746     0.73800
N231        N  0.06577844  0.47188692  0.53500501    -0.45800
C232        C  0.95451006  0.58743791  0.40028042     0.43600
N233        N  0.96663898  0.44282907  0.41859476    -0.45800
Co234      Co  0.01492180  0.51185276  0.51719632     0.73900
C235        C  0.96344469  0.55086052  0.53862768    -0.06200
C236        C  0.06951231  0.59261759  0.43105810    -0.05700
N237        N  0.98562156  0.48654783  0.40669912    -0.25300
N238        N  0.06555052  0.58897108  0.50858124    -0.46000
H239        H  0.96234796  0.61350198  0.44302978     0.07600
C240        C  0.96374484  0.43828722  0.49626426    -0.06100
Cl241      Cl  0.01604372  0.51597254  0.46320450    -0.49100
C242        C  0.08037580  0.44783253  0.52490024     0.43400
H243        H  0.96279645  0.49415493  0.36598088     0.07600
N244        N  0.96492078  0.47095887  0.53425338    -0.45900
C245        C  0.88272866  0.36351179  0.32826245     0.30500
C246        C  0.90102044  0.36482243  0.35279249    -0.35800
C247        C  0.91350685  0.39290597  0.35865199     0.16500
C248        C  0.90870310  0.41789719  0.34134852     0.22300
C249        C  0.89062379  0.41650200  0.31670185    -0.33900
C250        C  0.87792070  0.38851770  0.31104233     0.16400
O251        O  0.86667021  0.34040830  0.32039606    -0.25900
C252        C  0.85120121  0.35072780  0.29786372     0.06200
C253        C  0.85770238  0.38052725  0.29095185    -0.30800
O254        O  0.92202742  0.44203704  0.35127384    -0.22600
C255        C  0.93535593  0.43241765  0.37538341    -0.02600
C256        C  0.93082170  0.40206645  0.38105315    -0.17100
H257        H  0.90445525  0.34558878  0.36692270     0.20900
H258        H  0.88606929  0.43609252  0.30338903     0.19300
H259        H  0.84759527  0.39499573  0.27484699     0.19200
H260        H  0.93911996  0.38872981  0.39906160     0.15100
C261        C  0.79793871  0.35440377  0.21578848     0.30500
C262        C  0.79157103  0.34412011  0.18773594    -0.35800
C263        C  0.76471280  0.35203744  0.17670352     0.16500
C264        C  0.74612263  0.37119653  0.19089481     0.22300
C265        C  0.75322536  0.38277323  0.21895519    -0.33900
C266        C  0.77950285  0.37268114  0.23125185     0.16400
O267        O  0.81738686  0.34188901  0.23233920    -0.25900
C268        C  0.81150503  0.35058658  0.25958371     0.06200
C269        C  0.78895281  0.37161928  0.25997883    -0.30800
O270        O  0.71990262  0.37009255  0.17941531    -0.22600
C271        C  0.72113809  0.34829679  0.15922299    -0.02600
C272        C  0.74904800  0.33692069  0.15662584    -0.17100
H273        H  0.80459774  0.32693122  0.17740324     0.20900
H274        H  0.73755567  0.39490545  0.23193171     0.19300
H275        H  0.77916903  0.38245958  0.27868192     0.19200
H276        H  0.75642887  0.31686190  0.14568875     0.15100
C277        C  0.71101029  0.26366515  0.11244242     0.30500
C278        C  0.71531143  0.23302473  0.11719090    -0.35800
C279        C  0.74249263  0.22183365  0.10994246     0.16500
C280        C  0.76366653  0.23940854  0.09757800     0.22300
C281        C  0.75790924  0.26937064  0.08929001    -0.33900
C282        C  0.73083102  0.28097378  0.09754721     0.16400
O283        O  0.69361982  0.27985942  0.12858138    -0.25900
C284        C  0.70186176  0.30811305  0.12452887     0.06200
C285        C  0.72330496  0.31024554  0.10298326    -0.30800
O286        O  0.78966637  0.22843091  0.10268976    -0.22600
C287        C  0.78535343  0.20374736  0.11894458    -0.02600
C288        C  0.75590329  0.19810428  0.12262974    -0.17100
H289        H  0.70079367  0.22035484  0.13111482     0.20900
H290        H  0.77507548  0.28408337  0.08205191     0.19300
H291        H  0.73581616  0.32999142  0.09748929     0.19200
H292        H  0.74489848  0.18296881  0.13719840     0.15100
C293        C  0.83727390  0.24770814  0.18884785     0.30500
C294        C  0.85731971  0.26476951  0.20540846    -0.35800
C295        C  0.84702571  0.27649326  0.23237939     0.16500
C296        C  0.81971905  0.27001208  0.24244022     0.22300
C297        C  0.79982201  0.25434201  0.22567049    -0.33900
C298        C  0.80926894  0.24489607  0.19838736     0.16400
O299        O  0.84191391  0.23192109  0.16449969    -0.25900
C300        C  0.81602878  0.21999784  0.15849878     0.06200
C301        C  0.79482779  0.22921281  0.17812068    -0.30800
O302        O  0.81259189  0.28524500  0.26562097    -0.22600
C303        C  0.83469278  0.30342365  0.27090953    -0.02600
C304        C  0.85740351  0.29845593  0.25099016    -0.17100
H305        H  0.87892695  0.26916736  0.19758383     0.20900
H306        H  0.77780294  0.25104138  0.23289966     0.19300
H307        H  0.77286445  0.22113848  0.17985133     0.19200
H308        H  0.87622234  0.31237892  0.24758252     0.15100
C309        C  0.66062216  0.28317702  0.19761932     0.30500
C310        C  0.65659109  0.25294096  0.20597573    -0.35800
C311        C  0.66572733  0.24532859  0.23449952     0.16500
C312        C  0.67734485  0.26628363  0.25313046     0.22300
C313        C  0.67867408  0.29669440  0.24590411    -0.33900
C314        C  0.67028134  0.30415325  0.21742306     0.16400
O315        O  0.66334879  0.29272220  0.17036262    -0.25900
C316        C  0.67578479  0.31976750  0.17233574     0.06200
C317        C  0.67840954  0.32850426  0.20172480    -0.30800
O318        O  0.69132253  0.25407107  0.27497341    -0.22600
C319        C  0.68856461  0.22454181  0.27158538    -0.02600
C320        C  0.67151621  0.21793180  0.24692421    -0.17100
H321        H  0.65093419  0.23588010  0.19008291     0.20900
H322        H  0.68969466  0.31262778  0.25992077     0.19300
H323        H  0.68881805  0.34777740  0.21121489     0.19200
H324        H  0.66578392  0.19645584  0.23781437     0.15100
C325        C  0.79057757  0.28574363  0.33457063     0.30500
C326        C  0.78718785  0.25453337  0.33832186    -0.35800
C327        C  0.75908172  0.24324256  0.33521793     0.16500
C328        C  0.73553774  0.26184318  0.33251463     0.22300
C329        C  0.73877326  0.29307222  0.33019938    -0.33900
C330        C  0.76708839  0.30393126  0.32939762     0.16400
O331        O  0.81461915  0.29795477  0.32504122    -0.25900
C332        C  0.80665998  0.32294702  0.31085675     0.06200
C333        C  0.77713142  0.32825496  0.31418456    -0.30800
O334        O  0.71295184  0.24768011  0.32221543    -0.22600
C335        C  0.72218209  0.22038220  0.31495186    -0.02600
C336        C  0.75049008  0.21578771  0.32475346    -0.17100
H337        H  0.80567114  0.23970750  0.33751668     0.20900
H338        H  0.72087399  0.30699774  0.32324300     0.19300
H339        H  0.76345922  0.34366622  0.30248905     0.19200
H340        H  0.76433160  0.19665443  0.32100908     0.15100
C341        C  0.76311745  0.17085472  0.24774660     0.30500
C342        C  0.79132337  0.16996369  0.23665464    -0.35800
C343        C  0.79457704  0.15904073  0.20787472     0.16500
C344        C  0.77126799  0.15072470  0.19093356     0.22300
C345        C  0.74356966  0.14825657  0.20332395    -0.33900
C346        C  0.74054016  0.15868318  0.23228329     0.16400
O347        O  0.75442841  0.18657342  0.27067326    -0.25900
C348        C  0.72579182  0.18383150  0.27079555     0.06200
C349        C  0.71630415  0.16542437  0.24782795    -0.30800
O350        O  0.77614478  0.15494407  0.16264384    -0.22600
C351        C  0.80237285  0.16694342  0.16120981    -0.02600
C352        C  0.81607339  0.16584464  0.18870462    -0.17100
H353        H  0.80886759  0.18103699  0.24798880     0.20900
H354        H  0.72490742  0.14327059  0.18990839     0.19300
H355        H  0.69457019  0.15918093  0.24209923     0.19200
H356        H  0.83577561  0.17740730  0.19462218     0.15100
C357        C  0.87546056  0.16194439  0.11148452     0.30500
C358        C  0.90216101  0.14704031  0.11342031    -0.35800
C359        C  0.91257896  0.13425463  0.08725325     0.16500
C360        C  0.89766097  0.13596994  0.06106909     0.22300
C361        C  0.87133728  0.15129367  0.05904850    -0.33900
C362        C  0.86100653  0.16404173  0.08511317     0.16400
O363        O  0.86034739  0.17299160  0.13359255    -0.25900
C364        C  0.83585225  0.18242817  0.12122660     0.06200
C365        C  0.83538539  0.17750555  0.09094912    -0.30800
O366        O  0.90986284  0.12022808  0.03996218    -0.22600
C367        C  0.93312314  0.10843891  0.05258190    -0.02600
C368        C  0.93607886  0.11656874  0.08195890    -0.17100
H369        H  0.91341161  0.14448677  0.13409849     0.20900
H370        H  0.85912207  0.15210203  0.03880471     0.19300
H371        H  0.81790017  0.18124209  0.07562970     0.19200
H372        H  0.95222804  0.10913561  0.09751834     0.15100
C373        C  0.87314139  0.86397069  0.85359699     0.30500
C374        C  0.87846175  0.87680666  0.88107637    -0.35800
C375        C  0.90251758  0.89557744  0.88288522     0.16500
C376        C  0.92035587  0.90136829  0.85932610     0.22300
C377        C  0.91494661  0.88844411  0.83162353    -0.33900
C378        C  0.89060644  0.86962501  0.82975803     0.16400
O379        O  0.85084842  0.84716928  0.84699859    -0.25900
C380        C  0.85355732  0.84167150  0.81839611     0.06200
C381        C  0.87813258  0.85514750  0.80644459    -0.30800
O382        O  0.94108639  0.92060076  0.86601168    -0.22600
C383        C  0.93624604  0.92706018  0.89415713    -0.02600
C384        C  0.91254426  0.91211519  0.90570039    -0.17100
H385        H  0.86435509  0.87297405  0.89962928     0.20900
H386        H  0.92833876  0.89326729  0.81275587     0.19300
H387        H  0.88510535  0.85536281  0.78379762     0.19200
H388        H  0.90355427  0.91373846  0.92756179     0.15100
C389        C  0.77351081  0.88183527  0.69905263     0.30500
C390        C  0.80165872  0.87627835  0.70906516    -0.35800
C391        C  0.80482038  0.87132755  0.73933797     0.16500
C392        C  0.78189350  0.87190110  0.75845893     0.22300
C393        C  0.75426054  0.88027665  0.74886114    -0.33900
C394        C  0.75100469  0.88532320  0.71855309     0.16400
O395        O  0.76443487  0.87595276  0.67220068    -0.25900
C396        C  0.73577388  0.87546100  0.67420740     0.06200
C397        C  0.72640360  0.88376787  0.70228711    -0.30800
O398        O  0.78781498  0.85850420  0.78364917    -0.22600
C399        C  0.81497019  0.84923884  0.78104429    -0.02600
C400        C  0.82688804  0.85807648  0.75413080    -0.17100
H401        H  0.81900959  0.87150289  0.69389101     0.20900
H402        H  0.73578927  0.87873601  0.76329437     0.19300
H403        H  0.70486110  0.88084789  0.71098938     0.19200
H404        H  0.84756519  0.85202410  0.74497937     0.15100
C405        C  0.77804409  0.75363582  0.61049885     0.30500
C406        C  0.75017133  0.76546781  0.60704199    -0.35800
C407        C  0.74741019  0.79678584  0.60984349     0.16500
C408        C  0.77062825  0.81509932  0.61596618     0.22300
C409        C  0.79882189  0.80352961  0.61658041    -0.33900
C410        C  0.80148479  0.77223510  0.61367109     0.16400
O411        O  0.78411767  0.72543663  0.61714797    -0.25900
C412        C  0.81187278  0.72550510  0.62464512     0.06200
C413        C  0.82397883  0.75412134  0.62100545    -0.30800
O414        O  0.76269757  0.84065333  0.62823975    -0.22600
C415        C  0.73404834  0.83896742  0.63020204    -0.02600
C416        C  0.72342858  0.81287302  0.61693113    -0.17100
H417        H  0.73144956  0.75096579  0.60650531     0.20900
H418        H  0.81689866  0.81726771  0.62333631     0.19300
H419        H  0.84531681  0.76168309  0.62675657     0.19200
H420        H  0.70185103  0.80387287  0.61913207     0.15100
C421        C  0.83410415  0.73041302  0.71307924     0.30500
C422        C  0.82183842  0.73684902  0.73977122    -0.35800
C423        C  0.83364391  0.76066511  0.75479702     0.16500
C424        C  0.85699461  0.77697795  0.74538823     0.22300
C425        C  0.87058258  0.76941855  0.71839192    -0.33900
C426        C  0.85787575  0.74534018  0.70247860     0.16400
O427        O  0.82212016  0.71270395  0.69416848    -0.25900
C428        C  0.83835620  0.71439911  0.67039429     0.06200
C429        C  0.86166884  0.73429719  0.67441609    -0.30800
O430        O  0.86097499  0.80133505  0.76191975    -0.22600
C431        C  0.83958162  0.80011572  0.78182511    -0.02600
C432        C  0.82187072  0.77536296  0.77707725    -0.17100
H433        H  0.80268927  0.72539102  0.74713713     0.20900
H434        H  0.88804208  0.78267303  0.70943823     0.19300
H435        H  0.87764723  0.74120444  0.65850497     0.19200
H436        H  0.80085904  0.77041077  0.78609562     0.15100
C437        C  0.90653978  0.63522153  0.56099101     0.30500
C438        C  0.89029616  0.66185168  0.56172598    -0.35800
C439        C  0.87669227  0.66847326  0.58848559     0.16500
C440        C  0.87921565  0.65037217  0.61293005     0.22300
C441        C  0.89534389  0.62370171  0.61218600    -0.33900
C442        C  0.90858838  0.61685869  0.58533564     0.16400
O443        O  0.92086804  0.62454191  0.53823111    -0.25900
C444        C  0.93196733  0.59884226  0.54806238     0.06200
C445        C  0.92493603  0.59287666  0.57718388    -0.30800
O446        O  0.86358519  0.66000943  0.63515799    -0.22600
C447        C  0.85041627  0.68449865  0.62488216    -0.02600
C448        C  0.85804204  0.69088579  0.59587581    -0.17100
H449        H  0.88798376  0.67611849  0.54261275     0.20900
H450        H  0.89691758  0.60896903  0.63104111     0.19300
H451        H  0.93135459  0.57390449  0.59055530     0.19200
H452        H  0.84990770  0.70847834  0.58170583     0.15100
C453        C  0.69556924  0.75338600  0.74038614     0.30500
C454        C  0.67843613  0.77320165  0.72331429    -0.35800
C455        C  0.69370768  0.79432745  0.70594405     0.16500
C456        C  0.72343338  0.79514314  0.70572735     0.22300
C457        C  0.74017067  0.77638007  0.72298010    -0.33900
C458        C  0.72518043  0.75598476  0.74003683     0.16400
O459        O  0.68693069  0.73056603  0.75719227    -0.25900
C460        C  0.71170474  0.71911937  0.76738421     0.06200
C461        C  0.73572871  0.73466356  0.75758332    -0.30800
O462        O  0.73392766  0.81514580  0.68792658    -0.22600
C463        C  0.71107562  0.82851217  0.67626634    -0.02600
C464        C  0.68503835  0.81653759  0.68665697    -0.17100
H465        H  0.65514530  0.77193100  0.72318362     0.20900
H466        H  0.76351095  0.77731333  0.72272756     0.19300
H467        H  0.75801703  0.73007871  0.76254429     0.19200
H468        H  0.66327824  0.82311218  0.68103143     0.15100
C469        C  0.74048532  0.65714619  0.72118318     0.30500
C470        C  0.74062949  0.66053080  0.69052309    -0.35800
C471        C  0.76758486  0.65878543  0.67666601     0.16500
C472        C  0.79231133  0.65104024  0.69157774     0.22300
C473        C  0.79186927  0.64629087  0.72219584    -0.33900
C474        C  0.76538417  0.65110226  0.73644620     0.16400
O475        O  0.71997885  0.66747802  0.73826781    -0.25900
C476        C  0.73186531  0.67018801  0.76487900     0.06200
C477        C  0.76011608  0.65898752  0.76507638    -0.30800
O478        O  0.81568069  0.65873164  0.67698218    -0.22600
C479        C  0.80640173  0.67447650  0.65372570    -0.02600
C480        C  0.77626472  0.67301231  0.65153956    -0.17100
H481        H  0.72196723  0.66937236  0.67913021     0.20900
H482        H  0.81173544  0.64445342  0.73455233     0.19300
H483        H  0.77624129  0.65960512  0.78184212     0.19200
H484        H  0.76180958  0.68469329  0.63697799     0.15100
C485        C  0.74120423  0.74487404  0.83688048     0.30500
C486        C  0.74299890  0.77626730  0.83885520    -0.35800
C487        C  0.77076147  0.78852619  0.84087158     0.16500
C488        C  0.79496290  0.77093779  0.84456374     0.22300
C489        C  0.79285802  0.73933592  0.84453073    -0.33900
C490        C  0.76544214  0.72717839  0.83878759     0.16400
O491        O  0.71989596  0.73109623  0.82355540    -0.25900
C492        C  0.73070469  0.70498439  0.81424547     0.06200
C493        C  0.75868867  0.70066284  0.82501700    -0.30800
O494        O  0.81862473  0.78530121  0.83684729    -0.22600
C495        C  0.80971570  0.81133941  0.82528179    -0.02600
C496        C  0.78002543  0.81518526  0.82928087    -0.17100
H497        H  0.72475471  0.79014775  0.83282135     0.20900
H498        H  0.81203034  0.72559451  0.84275748     0.19300
H499        H  0.77378079  0.68308320  0.82061198     0.19200
H500        H  0.76585409  0.83213417  0.82053527     0.15100
C501        C  0.87670620  0.86657684  0.09587483     0.30500
C502        C  0.88672625  0.87313140  0.06752572    -0.35800
C503        C  0.91001165  0.89307248  0.06578317     0.16500
C504        C  0.92306240  0.90510163  0.09033604     0.22300
C505        C  0.91312710  0.89827741  0.11877139    -0.33900
C506        C  0.88930629  0.87886470  0.12049683     0.16400
O507        O  0.85345503  0.85102360  0.10211179    -0.25900
C508        C  0.85070275  0.85322431  0.13117422     0.06200
C509        C  0.87257269  0.87035917  0.14385078    -0.30800
O510        O  0.94303318  0.92505330  0.08355401    -0.22600
C511        C  0.94247922  0.92609914  0.05434300    -0.02600
C512        C  0.92239172  0.90662713  0.04206890    -0.17100
H513        H  0.87607302  0.86454914  0.04812254     0.20900
H514        H  0.92237003  0.90863114  0.13808358     0.19300
H515        H  0.87490242  0.87683403  0.16661450     0.19200
H516        H  0.91679687  0.90396031  0.01914147     0.15100
C517        C  0.76536303  0.73339005  0.11795935     0.30500
C518        C  0.79373617  0.74381742  0.11514255    -0.35800
C519        C  0.79701201  0.77488705  0.11092852     0.16500
C520        C  0.77380052  0.79427845  0.10977091     0.22300
C521        C  0.74553507  0.78329821  0.10863222    -0.33900
C522        C  0.74229698  0.75231922  0.11300753     0.16400
O523        O  0.75770238  0.70839243  0.13159699    -0.25900
C524        C  0.72932893  0.71117620  0.13510791     0.06200
C525        C  0.71858334  0.73738626  0.12233798    -0.30800
O526        O  0.78063753  0.82169924  0.11826281    -0.22600
C527        C  0.80850617  0.82019045  0.12477928    -0.02600
C528        C  0.82012096  0.79196940  0.11818150    -0.17100
H529        H  0.81190011  0.72970511  0.12088483     0.20900
H530        H  0.72722083  0.79833761  0.10967453     0.19300
H531        H  0.69695408  0.74632101  0.12389543     0.19200
H532        H  0.84106312  0.78360636  0.12482608     0.15100
C533        C  0.76834652  0.65085270  0.25490599     0.30500
C534        C  0.74095719  0.64499478  0.24278630    -0.35800
C535        C  0.73928683  0.64366738  0.21178881     0.16500
C536        C  0.76307178  0.64948878  0.19436833     0.22300
C537        C  0.79074087  0.65030630  0.20647569    -0.33900
C538        C  0.79239023  0.65066612  0.23717894     0.16400
O539        O  0.77335256  0.66417493  0.28056588    -0.25900
C540        C  0.80117512  0.67185603  0.27947335     0.06200
C541        C  0.81404736  0.66211275  0.25341634    -0.30800
O542        O  0.75617111  0.66328607  0.16963639    -0.22600
C543        C  0.72765300  0.66580725  0.17066280    -0.02600
C544        C  0.71592203  0.65067685  0.19487155    -0.17100
H545        H  0.72167668  0.64699082  0.25601608     0.20900
H546        H  0.80916358  0.65648862  0.19318615     0.19300
H547        H  0.83442801  0.66943781  0.24445383     0.19200
H548        H  0.69407207  0.65318841  0.20287129     0.15100
C549        C  0.83965268  0.75232768  0.24465488     0.30500
C550        C  0.85808260  0.76988390  0.22665375    -0.35800
C551        C  0.84414920  0.78960304  0.20667127     0.16500
C552        C  0.81449504  0.79155355  0.20534237     0.22300
C553        C  0.79652066  0.77432387  0.22273478    -0.33900
C554        C  0.81016998  0.75486988  0.24185080     0.16400
O555        O  0.84689687  0.73190780  0.26476549    -0.25900
C556        C  0.82136713  0.72165296  0.27419231     0.06200
C557        C  0.79821767  0.73515567  0.26016958    -0.30800
O558        O  0.80524574  0.80996155  0.18534119    -0.22600
C559        C  0.82886028  0.82059431  0.17274183    -0.02600
C560        C  0.85416929  0.80884187  0.18514017    -0.17100
H561        H  0.88129384  0.76802132  0.22781561     0.20900
H562        H  0.77327769  0.77561064  0.22103217     0.19300
H563        H  0.77550356  0.73074160  0.26325865     0.19200
H564        H  0.87624942  0.81294673  0.17868102     0.15100
C565        C  0.86682507  0.66723099  0.34693521     0.30500
C566        C  0.87612317  0.65723271  0.37452372    -0.35800
C567        C  0.90000384  0.63800887  0.37459776     0.16500
C568        C  0.91381101  0.62894948  0.34928346     0.22300
C569        C  0.90499267  0.63973187  0.32164793    -0.33900
C570        C  0.88107284  0.65917223  0.32161960     0.16400
O571        O  0.84329454  0.68288537  0.34173424    -0.25900
C572        C  0.84220184  0.68528146  0.31258107     0.06200
C573        C  0.86573557  0.67137997  0.29901327    -0.30800
O574        O  0.93465669  0.60938141  0.35458431    -0.22600
C575        C  0.93423229  0.60631860  0.38369123    -0.02600
C576        C  0.91332380  0.62376275  0.39721336    -0.17100
H577        H  0.86487636  0.66318115  0.39449442     0.20900
H578        H  0.91539849  0.63269218  0.30154782     0.19300
H579        H  0.87040935  0.66908208  0.27593778     0.19200
H580        H  0.90833785  0.62524506  0.42037691     0.15100
C581        C  0.70132839  0.77867886  0.25310236     0.30500
C582        C  0.71141288  0.75030026  0.24700670    -0.35800
C583        C  0.70277150  0.73823093  0.22060476     0.16500
C584        C  0.68438550  0.75205432  0.20121257     0.22300
C585        C  0.67335296  0.78107523  0.20784117    -0.33900
C586        C  0.68280717  0.79390485  0.23476810     0.16400
O587        O  0.71121310  0.79484572  0.27444496    -0.25900
C588        C  0.69883338  0.82147863  0.27163521     0.06200
C589        C  0.68029402  0.82217412  0.24704040    -0.30800
O590        O  0.68248532  0.73678086  0.17609878    -0.22600
C591        C  0.70019742  0.71315514  0.17995088    -0.02600
C592        C  0.71380778  0.71446968  0.20717015    -0.17100
H593        H  0.72683959  0.73913891  0.26120597     0.20900
H594        H  0.66010247  0.79345112  0.19241902     0.19300
H595        H  0.66875114  0.84126780  0.23817093     0.19200
H596        H  0.73223349  0.70218231  0.21525629     0.15100
C597        C  0.73861545  0.88196177  0.22623733     0.30500
C598        C  0.74015800  0.88117075  0.19549821    -0.35800
C599        C  0.76781813  0.88299420  0.18319342     0.16500
C600        C  0.79217735  0.88691149  0.20004490     0.22300
C601        C  0.79021400  0.89063857  0.23074041    -0.33900
C602        C  0.76261392  0.88714988  0.24313503     0.16400
O603        O  0.71707907  0.87108885  0.24167322    -0.25900
C604        C  0.72706975  0.86808402  0.26902092     0.06200
C605        C  0.75492118  0.88008258  0.27134028    -0.30800
O606        O  0.81565973  0.87811110  0.18613777    -0.22600
C607        C  0.80649104  0.86712126  0.16038939    -0.02600
C608        C  0.77683392  0.87186576  0.15686636    -0.17100
H609        H  0.72174612  0.87437150  0.18248657     0.20900
H610        H  0.80934444  0.89092462  0.24436342     0.19300
H611        H  0.76854900  0.88286554  0.29018432     0.19200
H612        H  0.76248193  0.86373659  0.14008749     0.15100
C613        C  0.73542778  0.78937130  0.33670377     0.30500
C614        C  0.73438566  0.75759848  0.33674412    -0.35800
C615        C  0.76104570  0.74235843  0.33547747     0.16500
C616        C  0.78688827  0.75746073  0.33729640     0.22300
C617        C  0.78786695  0.78893998  0.33768996    -0.33900
C618        C  0.76143734  0.80402135  0.33546899     0.16400
O619        O  0.71412251  0.80664350  0.32748505    -0.25900
C620        C  0.72661273  0.83136314  0.31634106     0.06200
C621        C  0.75621214  0.83117170  0.32251098    -0.30800
O622        O  0.80884363  0.74076654  0.32931306    -0.22600
C623        C  0.79746848  0.71496455  0.32001367    -0.02600
C624        C  0.76753381  0.71431482  0.32446806    -0.17100
H625        H  0.71431516  0.74588388  0.33276446     0.20900
H626        H  0.80804333  0.80066828  0.33430573     0.19300
H627        H  0.77324850  0.84503592  0.31444358     0.19200
H628        H  0.75209869  0.69825918  0.31621871     0.15100
C629        C  0.15054906  0.87139239  0.83312177     0.30500
C630        C  0.12177267  0.88143449  0.83546954    -0.35800
C631        C  0.11604627  0.90248570  0.85790103     0.16500
C632        C  0.13710818  0.91253034  0.87692102     0.22300
C633        C  0.16571324  0.90274956  0.87443766    -0.33900
C634        C  0.17145154  0.88225982  0.85184971     0.16400
O635        O  0.16112567  0.85211865  0.81362968    -0.25900
C636        C  0.18925746  0.85103963  0.81990642     0.06200
C637        C  0.19667130  0.86963358  0.84332031    -0.30800
O638        O  0.12731933  0.93215089  0.89618620    -0.22600
C639        C  0.09955092  0.93511098  0.88947082    -0.02600
C640        C  0.09129861  0.91725098  0.86573964    -0.17100
H641        H  0.10510475  0.87366635  0.82068365     0.20900
H642        H  0.18248465  0.91088204  0.88892344     0.19300
H643        H  0.21782848  0.87317932  0.85275252     0.19200
H644        H  0.07022096  0.91553203  0.85568113     0.15100
C645        C  0.19807397  0.73891447  0.71287822     0.30500
C646        C  0.21094443  0.74425683  0.73952766    -0.35800
C647        C  0.20242041  0.76999099  0.75372137     0.16500
C648        C  0.18171281  0.78942202  0.74364289     0.22300
C649        C  0.16820411  0.78382949  0.71604936    -0.33900
C650        C  0.17752088  0.75755141  0.70091858     0.16400
O651        O  0.20668104  0.71793319  0.69540875    -0.25900
C652        C  0.19146474  0.72124362  0.67110101     0.06200
C653        C  0.17262173  0.74606104  0.67306814    -0.30800
O654        O  0.17979239  0.81366019  0.76081050    -0.22600
C655        C  0.19980607  0.80904720  0.78181426    -0.02600
C656        C  0.21497147  0.78260327  0.77671540    -0.17100
H657        H  0.22790856  0.72994724  0.74785133     0.20900
H658        H  0.15296453  0.79942316  0.70647968     0.19300
H659        H  0.15917196  0.75544582  0.65594542     0.19200
H660        H  0.23487884  0.77474380  0.78632842     0.15100
C661        C  0.14373676  0.65779229  0.61670758     0.30500
C662        C  0.12484124  0.63304593  0.61751435    -0.35800
C663        C  0.11468725  0.62272203  0.59021954     0.16500
C664        C  0.12213663  0.63627010  0.56404098     0.22300
C665        C  0.14089184  0.66099891  0.56327554    -0.33900
C666        C  0.15136537  0.67100733  0.59046732     0.16400
O667        O  0.15823832  0.66895189  0.63915967    -0.25900
C668        C  0.17569843  0.68947789  0.62724947     0.06200
C669        C  0.17187469  0.69190442  0.59692119    -0.30800
O670        O  0.11033683  0.62302805  0.54109450    -0.22600
C671        C  0.09539106  0.60038735  0.55256722    -0.02600
C672        C  0.09736215  0.59897937  0.58307181    -0.17100
H673        H  0.11932046  0.62192629  0.63789065     0.20900
H674        H  0.14755435  0.67116974  0.54278283     0.19300
H675        H  0.18421360  0.70512596  0.58143804     0.19200
H676        H  0.08711686  0.58315448  0.59779825     0.15100
C677        C  0.23269961  0.76879555  0.61389801     0.30500
C678        C  0.23555282  0.80022140  0.61491664    -0.35800
C679        C  0.26379004  0.81163874  0.61360827     0.16500
C680        C  0.28749569  0.79335460  0.61041751     0.22300
C681        C  0.28442286  0.76206125  0.60730265    -0.33900
C682        C  0.25628652  0.75058955  0.60980819     0.16400
O683        O  0.20990367  0.75364669  0.62286164    -0.25900
C684        C  0.21875333  0.72518120  0.62544261     0.06200
C685        C  0.24736751  0.72203113  0.61598975    -0.30800
O686        O  0.31153253  0.80688135  0.61843909    -0.22600
C687        C  0.30343015  0.83394812  0.62823804    -0.02600
C688        C  0.27390727  0.83862791  0.62344029    -0.17100
H689        H  0.21749535  0.81440836  0.62073991     0.20900
H690        H  0.30300675  0.74735494  0.60745621     0.19300
H691        H  0.26109970  0.70249979  0.61604774     0.19200
H692        H  0.26041502  0.85702564  0.63025914     0.15100
C693        C  0.26468839  0.87143782  0.76060441     0.30500
C694        C  0.29275209  0.87523248  0.74964271    -0.35800
C695        C  0.29513182  0.88107404  0.71937447     0.16500
C696        C  0.27143473  0.88188272  0.70111014     0.22300
C697        C  0.24336920  0.88136666  0.71261162    -0.33900
C698        C  0.24104269  0.87633204  0.74295586     0.16400
O699        O  0.25785558  0.85777682  0.78545355    -0.25900
C700        C  0.22935429  0.85436521  0.78419650     0.06200
C701        C  0.21779175  0.86723589  0.75872506    -0.30800
O702        O  0.27808115  0.87529558  0.67367977    -0.22600
C703        C  0.30640092  0.87054243  0.67392298    -0.02600
C704        C  0.31829634  0.87658121  0.70164149    -0.17100
H705        H  0.31146068  0.86982974  0.76285340     0.20900
H706        H  0.22468579  0.88037081  0.69839132     0.19300
H707        H  0.19583284  0.86587939  0.75085334     0.19200
H708        H  0.33975548  0.87058141  0.70898467     0.15100
C709        C  0.26325072  0.65319267  0.73936812     0.30500
C710        C  0.23504254  0.65022965  0.72820853    -0.35800
C711        C  0.23189047  0.65239724  0.69741253     0.16500
C712        C  0.25484869  0.65910849  0.67940404     0.22300
C713        C  0.28319156  0.65817006  0.69005702    -0.33900
C714        C  0.28641949  0.65443301  0.72048791     0.16400
O715        O  0.27025485  0.66151260  0.76648461    -0.25900
C716        C  0.29848567  0.66720102  0.76511740     0.06200
C717        C  0.30967987  0.66109138  0.73722551    -0.30800
O718        O  0.24684565  0.67364629  0.65544015    -0.22600
C719        C  0.21829825  0.67583391  0.65729100    -0.02600
C720        C  0.20783331  0.65981982  0.68175228    -0.17100
H721        H  0.21650899  0.65073323  0.74262164     0.20900
H722        H  0.30119734  0.66477234  0.67638657     0.19300
H723        H  0.33080748  0.66730144  0.72913028     0.19200
H724        H  0.18631415  0.66144377  0.69082823     0.15100
C725        C  0.29126626  0.74127012  0.83686707     0.30500
C726        C  0.29176695  0.77252393  0.84105869    -0.35800
C727        C  0.26495498  0.78702544  0.84263368     0.16500
C728        C  0.23932147  0.77139200  0.84372377     0.22300
C729        C  0.23897824  0.73982127  0.84094244    -0.33900
C730        C  0.26563016  0.72569624  0.83581357     0.16400
O731        O  0.31241355  0.72645896  0.82434602    -0.25900
C732        C  0.30034247  0.70187672  0.81294214     0.06200
C733        C  0.27124400  0.69960437  0.82069491    -0.30800
O734        O  0.21721222  0.78845040  0.83632358    -0.22600
C735        C  0.22862173  0.81449436  0.82736882    -0.02600
C736        C  0.25827934  0.81536637  0.83304181    -0.17100
H737        H  0.31136354  0.78515873  0.83727128     0.20900
H738        H  0.21892945  0.72802822  0.83705995     0.19300
H739        H  0.25524469  0.68426532  0.81226257     0.19200
H740        H  0.27391860  0.83198555  0.82654596     0.15100
C741        C  0.33909955  0.74774919  0.73883315     0.30500
C742        C  0.35718769  0.76578133  0.72096899    -0.35800
C743        C  0.34294265  0.78711795  0.70296717     0.16500
C744        C  0.31329884  0.78962254  0.70290510     0.22300
C745        C  0.29569664  0.77254951  0.72077444    -0.33900
C746        C  0.30966555  0.75205362  0.73848853     0.16400
O747        O  0.34655082  0.72507974  0.75633297    -0.25900
C748        C  0.32123146  0.71553839  0.76692400     0.06200
C749        C  0.29799050  0.73203087  0.75664868    -0.30800
O750        O  0.30372133  0.80991177  0.68499941    -0.22600
C751        C  0.32710599  0.82182552  0.67308146    -0.02600
C752        C  0.35261543  0.80849657  0.68330001    -0.17100
H753        H  0.38037299  0.76315084  0.72083491     0.20900
H754        H  0.27245131  0.77493664  0.72063144     0.19300
H755        H  0.27538450  0.72857348  0.76118088     0.19200
H756        H  0.37463878  0.81407274  0.67775012     0.15100
C757        C  0.91505375  0.13458357  0.86001228     0.30500
C758        C  0.90883482  0.14708220  0.83235974    -0.35800
C759        C  0.88638090  0.16824960  0.83159731     0.16500
C760        C  0.87142421  0.17669038  0.85638111     0.22300
C761        C  0.87761700  0.16427942  0.88394174    -0.33900
C762        C  0.89969906  0.14289152  0.88463926     0.16400
O763        O  0.93428401  0.11349441  0.86571960    -0.25900
C764        C  0.93093529  0.10819492  0.89429113     0.06200
C765        C  0.90966329  0.12572606  0.90714698    -0.30800
O766        O  0.84983644  0.19481686  0.85046700    -0.22600
C767        C  0.85058580  0.19819431  0.82141002    -0.02600
C768        C  0.87314632  0.18217531  0.80852524    -0.17100
H769        H  0.92003655  0.14005800  0.81270203     0.20900
H770        H  0.86531577  0.17006910  0.90330567     0.19300
H771        H  0.90242076  0.12561691  0.92972998     0.19200
H772        H  0.87805184  0.17946960  0.78550101     0.15100
C773        C  0.76265152  0.16540839  0.70656832     0.30500
C774        C  0.79105217  0.16475407  0.71712479    -0.35800
C775        C  0.79454917  0.16801792  0.74758210     0.16500
C776        C  0.77167013  0.17245317  0.76637959     0.22300
C777        C  0.74313679  0.17026354  0.75610070    -0.33900
C778        C  0.73963341  0.16638621  0.72561717     0.16400
O779        O  0.75514668  0.17170383  0.67925234    -0.25900
C780        C  0.72683579  0.17642763  0.68031401     0.06200
C781        C  0.71595472  0.17146832  0.70862887    -0.30800
O782        O  0.77969426  0.18518237  0.79137626    -0.22600
C783        C  0.80817319  0.18863513  0.78882075    -0.02600
C784        C  0.81848438  0.17652610  0.76248758    -0.17100
H785        H  0.80926735  0.16584471  0.70231431     0.20900
H786        H  0.72500739  0.17540072  0.77017021     0.19300
H787        H  0.69455323  0.17673213  0.71651833     0.19200
H788        H  0.83956201  0.17984477  0.75288934     0.15100
C789        C  0.74025490  0.24785527  0.60970872     0.30500
C790        C  0.74109887  0.27929865  0.60681377    -0.35800
C791        C  0.76827674  0.29294373  0.60934338     0.16500
C792        C  0.79324311  0.27659414  0.61204200     0.22300
C793        C  0.79258981  0.24501504  0.61357802    -0.33900
C794        C  0.76517456  0.23148747  0.61349320     0.16400
O795        O  0.71731287  0.23307978  0.61865852    -0.25900
C796        C  0.72729969  0.20775346  0.63081867     0.06200
C797        C  0.75701403  0.20474684  0.62587226    -0.30800
O798        O  0.81513631  0.29336313  0.62044161    -0.22600
C799        C  0.80423998  0.32088002  0.62478299    -0.02600
C800        C  0.77495842  0.32171655  0.61728010    -0.17100
H801        H  0.72150520  0.29249381  0.60768650     0.20900
H802        H  0.81169891  0.23238164  0.61942220     0.19300
H803        H  0.77180683  0.18826228  0.63444920     0.19200
H804        H  0.75899813  0.33878819  0.62067546     0.15100
C805        C  0.82030229  0.26693689  0.75016291     0.30500
C806        C  0.80353082  0.28572283  0.73326203    -0.35800
C807        C  0.81727106  0.29910247  0.70984868     0.16500
C808        C  0.84597826  0.29518920  0.70310380     0.22300
C809        C  0.86343605  0.27639723  0.72101890    -0.33900
C810        C  0.84924831  0.26237370  0.74501914     0.16400
O811        O  0.81009372  0.25085468  0.77142029    -0.25900
C812        C  0.83244034  0.23556503  0.78152450     0.06200
C813        C  0.85793043  0.24187487  0.76606621    -0.30800
O814        O  0.85326650  0.31016441  0.67882042    -0.22600
C815        C  0.82848653  0.32328790  0.67068712    -0.02600
C816        C  0.80588438  0.31684086  0.68942506    -0.17100
H817        H  0.78088161  0.28895041  0.73780569     0.20900
H818        H  0.88597905  0.27250542  0.71629377     0.19300
H819        H  0.87905165  0.23201529  0.76883729     0.19200
H820        H  0.78408304  0.32523095  0.68813824     0.15100
C821        C  0.87234523  0.36549644  0.58978737     0.30500
C822        C  0.88083900  0.37155224  0.56082080    -0.35800
C823        C  0.90232672  0.39338948  0.55734831     0.16500
C824        C  0.91450413  0.40838238  0.58077783     0.22300
C825        C  0.90650624  0.40178300  0.60980671    -0.33900
C826        C  0.88513069  0.37976466  0.61328313     0.16400
O827        O  0.85023593  0.34881455  0.59769797    -0.25900
C828        C  0.84875070  0.35215454  0.62673549     0.06200
C829        C  0.87049788  0.37071056  0.63766552    -0.30800
O830        O  0.93298964  0.42917944  0.57237224    -0.22600
C831        C  0.93287531  0.42720057  0.54322103    -0.02600
C832        C  0.91433038  0.40523932  0.53262538    -0.17100
H833        H  0.87054078  0.36090199  0.54222212     0.20900
H834        H  0.91553337  0.41377203  0.62830877     0.19300
H835        H  0.87325200  0.37879495  0.65987921     0.19200
H836        H  0.90996768  0.39930976  0.51001857     0.15100
C837        C  0.71343193  0.26413872  0.69419217     0.30500
C838        C  0.72924452  0.28852411  0.70299196    -0.35800
C839        C  0.71666318  0.30661296  0.72382006     0.16500
C840        C  0.68971420  0.30183167  0.73545152     0.22300
C841        C  0.67307039  0.27681968  0.72600391    -0.33900
C842        C  0.68621135  0.25807998  0.70462178     0.16400
O843        O  0.72362813  0.24370755  0.67696964    -0.25900
C844        C  0.70271686  0.22378947  0.67444983     0.06200
C845        C  0.67849690  0.23126066  0.69153199    -0.30800
O846        O  0.68394278  0.32131672  0.75681059    -0.22600
C847        C  0.70770079  0.33851406  0.75809677    -0.02600
C848        C  0.72870452  0.32923271  0.73837158    -0.17100
H849        H  0.75070687  0.29196771  0.69487590     0.20900
H850        H  0.65217511  0.27176701  0.73531073     0.19300
H851        H  0.65910298  0.21823670  0.69496326     0.19200
H852        H  0.75071361  0.33694045  0.73610879     0.15100
C853        C  0.76370790  0.31847721  0.82809676     0.30500
C854        C  0.79140153  0.30787082  0.83526324    -0.35800
C855        C  0.79411008  0.27665095  0.83974383     0.16500
C856        C  0.77109889  0.25724791  0.83650707     0.22300
C857        C  0.74305254  0.26827751  0.83273027    -0.33900
C858        C  0.74038482  0.29937554  0.82858369     0.16400
O859        O  0.75789030  0.34410845  0.81444882    -0.25900
C860        C  0.73036716  0.34167291  0.80628078     0.06200
C861        C  0.71833625  0.31459300  0.81596738    -0.30800
O862        O  0.77929072  0.22989425  0.82896172    -0.22600
C863        C  0.80791190  0.23141498  0.82754360    -0.02600
C864        C  0.81820881  0.25948550  0.83679263    -0.17100
H865        H  0.81018168  0.32211881  0.83299975     0.20900
H866        H  0.72521692  0.25326857  0.82829854     0.19300
H867        H  0.69785261  0.30494516  0.80975408     0.19200
H868        H  0.83983724  0.26802729  0.83352822     0.15100
C869        C  0.74729158  0.40196210  0.72503166     0.30500
C870        C  0.74818194  0.40184966  0.69408589    -0.35800
C871        C  0.77520633  0.39650729  0.68112171     0.16500
C872        C  0.79998812  0.39423149  0.69754947     0.22300
C873        C  0.79940952  0.39655729  0.72830000    -0.33900
C874        C  0.77215038  0.39909144  0.74138549     0.16400
O875        O  0.72421399  0.39465482  0.74030295    -0.25900
C876        C  0.73406719  0.38486739  0.76623149     0.06200
C877        C  0.76389464  0.38910314  0.76856677    -0.30800
O878        O  0.82070681  0.38060072  0.68316572    -0.22600
C879        C  0.80905022  0.37171944  0.65772793    -0.02600
C880        C  0.78123890  0.38346833  0.65454415    -0.17100
H881        H  0.72853111  0.40004711  0.68136326     0.20900
H882        H  0.81820462  0.39076690  0.74123223     0.19300
H883        H  0.77855985  0.38085524  0.78505795     0.19200
H884        H  0.76595669  0.38065908  0.63702368     0.15100
C885        C  0.63738659  0.11879307  0.36647283     0.30500
C886        C  0.66368427  0.11959028  0.35132782    -0.35800
C887        C  0.66909748  0.14567924  0.33500232     0.16500
C888        C  0.65011636  0.16949752  0.33388193     0.22300
C889        C  0.62395070  0.16888133  0.34936959    -0.33900
C890        C  0.61836970  0.14262718  0.36547742     0.16400
O891        O  0.62784384  0.09642864  0.38273361    -0.25900
C892        C  0.60236233  0.10598090  0.39226878     0.06200
C893        C  0.59531591  0.13461550  0.38232872    -0.30800
O894        O  0.65977839  0.19180653  0.31756455    -0.22600
C895        C  0.68509619  0.18199195  0.30760395    -0.02600
C896        C  0.69215969  0.15355901  0.31825812    -0.17100
H897        H  0.67879501  0.10108192  0.35209436     0.20900
H898        H  0.60895868  0.18749998  0.34879259     0.19300
H899        H  0.57612156  0.14759752  0.38694628     0.19200
H900        H  0.71179134  0.14091640  0.31477904     0.15100
C901        C  0.63052981  0.92972294  0.59155141     0.30500
C902        C  0.65596432  0.93266504  0.60796025    -0.35800
C903        C  0.66632165  0.90647199  0.62145891     0.16500
C904        C  0.65290014  0.87900005  0.61887213     0.22300
C905        C  0.62702459  0.87612771  0.60276803    -0.33900
C906        C  0.61643265  0.90253117  0.58935895     0.16400
O907        O  0.61834354  0.95100913  0.57564406    -0.25900
C908        C  0.59583467  0.93760221  0.56315439     0.06200
C909        C  0.59341029  0.90740114  0.57102735    -0.30800
O910        O  0.66798954  0.85703915  0.63125999    -0.22600
C911        C  0.69108844  0.87079787  0.64256049    -0.02600
C912        C  0.69099974  0.90160066  0.63682080    -0.17100
H913        H  0.66742310  0.95379019  0.60934740     0.20900
H914        H  0.61640740  0.85466719  0.60009019     0.19300
H915        H  0.57784182  0.89113760  0.56327614     0.19200
H916        H  0.70766653  0.91786879  0.64167270     0.15100
C917        C  0.61666537  0.90845836  0.35897709     0.30500
C918        C  0.62064558  0.88227694  0.34212431    -0.35800
C919        C  0.64744137  0.87942388  0.32789510     0.16500
C920        C  0.66882137  0.90078965  0.33032111     0.22300
C921        C  0.66481229  0.92695416  0.34698010    -0.33900
C922        C  0.63807363  0.92986143  0.36104125     0.16400
O923        O  0.59375907  0.91533797  0.37491055    -0.25900
C924        C  0.60062133  0.94152742  0.38722808     0.06200
C925        C  0.62791965  0.95161277  0.37932650    -0.30800
O926        O  0.69275966  0.89291620  0.31680575    -0.22600
C927        C  0.68677661  0.86628900  0.30495543    -0.02600
C928        C  0.65878024  0.85668874  0.31132621    -0.17100
H929        H  0.60421510  0.86509399  0.34064806     0.20900
H930        H  0.68163847  0.94362134  0.34931029     0.19300
H931        H  0.63892655  0.97172187  0.38656906     0.19200
H932        H  0.64878690  0.83546299  0.30585078     0.15100
C933        C  0.37267509  0.89972325  0.62349057     0.30500
C934        C  0.38145174  0.92843045  0.61452711    -0.35800
C935        C  0.40426048  0.92956462  0.59444969     0.16500
C936        C  0.41811594  0.90421235  0.58429756     0.22300
C937        C  0.40942198  0.87531849  0.59351243    -0.33900
C938        C  0.38598363  0.87414264  0.61318130     0.16400
O939        O  0.34991668  0.89380881  0.63969521    -0.25900
C940        C  0.34808576  0.86394790  0.63994861     0.06200
C941        C  0.37010724  0.85044245  0.62370094    -0.30800
O942        O  0.43764485  0.91061331  0.56402790    -0.22600
C943        C  0.43592724  0.94038468  0.56105377    -0.02600
C944        C  0.41555353  0.95327761  0.57948432    -0.17100
H945        H  0.37023579  0.94847743  0.62157611     0.20900
H946        H  0.41927331  0.85517446  0.58483055     0.19300
H947        H  0.37298181  0.82681817  0.61900062     0.19200
H948        H  0.40919123  0.97662576  0.58082136     0.15100
C949        C  0.61584910  0.13790797  0.58870216     0.30500
C950        C  0.62430450  0.16668786  0.59804758    -0.35800
C951        C  0.64726751  0.16777794  0.61819802     0.16500
C952        C  0.66087756  0.14232964  0.62855775     0.22300
C953        C  0.65242543  0.11361440  0.61926181    -0.33900
C954        C  0.62966871  0.11252953  0.59897857     0.16400
O955        O  0.59599285  0.13163047  0.56876216    -0.25900
C956        C  0.59729426  0.10185160  0.56616722     0.06200
C957        C  0.61787593  0.08885318  0.58440942    -0.30800
O958        O  0.68332728  0.14855088  0.64528257    -0.22600
C959        C  0.68421761  0.17845135  0.64587528    -0.02600
C960        C  0.66219479  0.19155933  0.62933639    -0.17100
H961        H  0.61435223  0.18685281  0.58944992     0.20900
H962        H  0.66355349  0.09355537  0.62649167     0.19300
H963        H  0.62382230  0.06540562  0.58608512     0.19200
H964        H  0.65893457  0.21514550  0.62461308     0.15100
C965        C  0.37104814  0.90487322  0.32079928     0.30500
C966        C  0.37930923  0.93336304  0.33092657    -0.35800
C967        C  0.40377359  0.93436693  0.34903826     0.16500
C968        C  0.41948447  0.90914548  0.35639787     0.22300
C969        C  0.41144462  0.88058551  0.34579743    -0.33900
C970        C  0.38657217  0.87951528  0.32799799     0.16400
O971        O  0.34719232  0.89867757  0.30626197    -0.25900
C972        C  0.34701010  0.86882058  0.30393819     0.06200
C973        C  0.37129051  0.85573607  0.31696572    -0.30800
O974        O  0.44018127  0.91507713  0.37564560    -0.22600
C975        C  0.43752662  0.94446532  0.38072788    -0.02600
C976        C  0.41529988  0.95753855  0.36461610    -0.17100
H977        H  0.36662768  0.95321092  0.32625000     0.20900
H978        H  0.42290193  0.86043628  0.35219379     0.19300
H979        H  0.37631722  0.83215296  0.31931039     0.19200
H980        H  0.40780311  0.98054640  0.36534949     0.15100
C981        C  0.26345048  0.74582617  0.32645661     0.30500
C982        C  0.29149477  0.75729437  0.32963312    -0.35800
C983        C  0.29404888  0.78871584  0.33189845     0.16500
C984        C  0.27054176  0.80756208  0.33039357     0.22300
C985        C  0.24236675  0.79591207  0.32989036    -0.33900
C986        C  0.23983932  0.76450190  0.32801035     0.16400
O987        O  0.25687609  0.71893215  0.31609517    -0.25900
C988        C  0.22855868  0.71991842  0.31132750     0.06200
C989        C  0.21680936  0.74759452  0.31966984    -0.30800
O990        O  0.27763323  0.83489204  0.32157806    -0.22600
C991        C  0.30596667  0.83393039  0.31695722    -0.02600
C992        C  0.31742077  0.80608975  0.32574120    -0.17100
H993        H  0.31020254  0.74314568  0.32640109     0.20900
H994        H  0.22388633  0.81041173  0.32672550     0.19300
H995        H  0.19518873  0.75564955  0.31539433     0.19200
H996        H  0.33855110  0.79739709  0.32039540     0.15100
C997        C  0.12307689  0.62217124  0.34915165     0.30500
C998        C  0.13226234  0.62965606  0.32063641    -0.35800
C999        C  0.15213023  0.65342069  0.31847833     0.16500
C1000       C  0.16255276  0.66839249  0.34273886     0.22300
C1001       C  0.15313907  0.66115075  0.37116227    -0.33900
C1002       C  0.13306189  0.63770560  0.37329302     0.16400
O1003       O  0.10457596  0.60082764  0.35635004    -0.25900
C1004       C  0.10252580  0.60298714  0.38544573     0.06200
C1005       C  0.11977455  0.62551376  0.39715027    -0.30800
O1006       O  0.18310988  0.68767838  0.33607867    -0.22600
C1007       C  0.18600813  0.68537820  0.30704039    -0.02600
C1008       C  0.16671463  0.66471820  0.29489154    -0.17100
H1009       H  0.12477334  0.61752617  0.30152586     0.20900
H1010       H  0.16136408  0.67260219  0.39036118     0.19300
H1011       H  0.12197624  0.63210377  0.41990296     0.19200
H1012       H  0.16551798  0.65711577  0.27237466     0.15100
C1013       C  0.21309186  0.77665523  0.18641563     0.30500
C1014       C  0.22745101  0.75327608  0.19960458    -0.35800
C1015       C  0.21487512  0.74195925  0.22456882     0.16500
C1016       C  0.18884122  0.75118474  0.23574969     0.22300
C1017       C  0.17389668  0.77539348  0.22204199    -0.33900
C1018       C  0.18744167  0.78797891  0.19680370     0.16400
O1019       O  0.22399274  0.79189912  0.16500985    -0.25900
C1020       C  0.20537212  0.81370547  0.15966885     0.06200
C1021       C  0.18192099  0.81282413  0.17933847    -0.30800
O1022       O  0.18237369  0.73637236  0.26042953    -0.22600
C1023       C  0.20494493  0.71777621  0.26420281    -0.02600
C1024       C  0.22608232  0.72226237  0.24310137    -0.17100
H1025       H  0.24798965  0.74525350  0.19147736     0.20900
H1026       H  0.15405779  0.78437624  0.23088775     0.19300
H1027       H  0.16470473  0.82901521  0.18173330     0.19200
H1028       H  0.24760406  0.71297032  0.24191941     0.15100
C1029       C  0.23819167  0.87905935  0.20220433     0.30500
C1030       C  0.23757457  0.88087597  0.23299525    -0.35800
C1031       C  0.26421201  0.88503158  0.24711080     0.16500
C1032       C  0.28953345  0.88876839  0.23179563     0.22300
C1033       C  0.28983717  0.88876289  0.20088236    -0.33900
C1034       C  0.26344481  0.88287508  0.18683940     0.16400
O1035       O  0.21775327  0.86693690  0.18602563    -0.25900
C1036       C  0.22989844  0.86174335  0.15992721     0.06200
C1037       C  0.25824232  0.87256779  0.15902760    -0.30800
O1038       O  0.31234729  0.88346018  0.24825835    -0.22600
C1039       C  0.30196996  0.87453835  0.27424554    -0.02600
C1040       C  0.27183569  0.87722185  0.27508073    -0.17100
H1041       H  0.21843310  0.87474547  0.24519471     0.20900
H1042       H  0.30994680  0.88852704  0.18884639     0.19300
H1043       H  0.27409766  0.87042489  0.14183629     0.19200
H1044       H  0.25674866  0.86961393  0.29141767     0.15100
C1045       C  0.13532196  0.90607209  0.06033918     0.30500
C1046       C  0.16089021  0.88945772  0.05913012    -0.35800
C1047       C  0.16972014  0.87601361  0.08542955     0.16500
C1048       C  0.15473088  0.87873082  0.11139368     0.22300
C1049       C  0.12877718  0.89513969  0.11254724    -0.33900
C1050       C  0.11974796  0.90855654  0.08603771     0.16400
O1051       O  0.12417003  0.92178897  0.03860557    -0.25900
C1052       C  0.10093379  0.93445848  0.05027591     0.06200
C1053       C  0.09692535  0.92692390  0.07971492    -0.30800
O1054       O  0.16819017  0.86562623  0.13367298    -0.22600
C1055       C  0.19191591  0.85394689  0.12163023    -0.02600
C1056       C  0.19377931  0.86000995  0.09160012    -0.17100
H1057       H  0.17343803  0.88773296  0.03918086     0.20900
H1058       H  0.11685527  0.89786004  0.13277738     0.19300
H1059       H  0.08035193  0.93482518  0.09452531     0.19200
H1060       H  0.21102378  0.85457375  0.07652437     0.15100
C1061       C  0.32175251  0.75020282  0.20958982     0.30500
C1062       C  0.30360091  0.76889349  0.22505314    -0.35800
C1063       C  0.31679894  0.79164236  0.24040147     0.16500
C1064       C  0.34616016  0.79602254  0.24169110     0.22300
C1065       C  0.36488112  0.77679082  0.22581322    -0.33900
C1066       C  0.35131584  0.75357497  0.20957323     0.16400
O1067       O  0.31271345  0.72877265  0.19275003    -0.25900
C1068       C  0.33638774  0.71723092  0.18115570     0.06200
C1069       C  0.36155262  0.73156527  0.19096701    -0.30800
O1070       O  0.35297119  0.81871077  0.25942546    -0.22600
C1071       C  0.32725185  0.82835786  0.26889917    -0.02600
C1072       C  0.30436812  0.81228166  0.25714818    -0.17100
H1073       H  0.28049119  0.76600944  0.22512201     0.20900
H1074       H  0.38803706  0.77967359  0.22607200     0.19300
H1075       H  0.38359015  0.72753338  0.18432122     0.19200
H1076       H  0.28155073  0.81467980  0.26164341     0.15100
C1077       C  0.24365987  0.65109001  0.23884032     0.30500
C1078       C  0.24659397  0.65065482  0.20803235    -0.35800
C1079       C  0.27473519  0.65314624  0.19686374     0.16500
C1080       C  0.29855226  0.65325638  0.21488655     0.22300
C1081       C  0.29571769  0.65235049  0.24563601    -0.33900
C1082       C  0.26750823  0.65262907  0.25683451     0.16400
O1083       O  0.22022420  0.66058834  0.25220662    -0.25900
C1084       C  0.22903591  0.67101396  0.27826570     0.06200
C1085       C  0.25814675  0.66425575  0.28302189    -0.30800
O1086       O  0.32181942  0.66266199  0.20116221    -0.22600
C1087       C  0.31302184  0.67057763  0.17425801    -0.02600
C1088       C  0.28380867  0.66384565  0.17011102    -0.17100
H1089       H  0.22802858  0.65372433  0.19392490     0.20900
H1090       H  0.31407427  0.65661794  0.25971637     0.19300
H1091       H  0.27203365  0.67158149  0.30059994     0.19200
H1092       H  0.26992188  0.66988826  0.15203884     0.15100
C1093       C  0.27456294  0.79783300  0.10912923     0.30500
C1094       C  0.30282781  0.78733761  0.11267404    -0.35800
C1095       C  0.30643362  0.75602907  0.11325471     0.16500
C1096       C  0.28362064  0.73631255  0.11185920     0.22300
C1097       C  0.25586337  0.74680718  0.10458654    -0.17900
C1098       C  0.25246240  0.77827553  0.10251717     0.16400
O1099       O  0.26507476  0.82401655  0.11884796    -0.25900
C1100       C  0.23647226  0.82191809  0.11767336     0.06200
C1101       C  0.22777714  0.79467256  0.10481414    -0.30800
O1102       O  0.28978827  0.70991292  0.12403344    -0.22600
C1103       C  0.31722243  0.71239841  0.13261916    -0.02600
C1104       C  0.32879841  0.74030414  0.12447844    -0.17100
H1105       H  0.32006447  0.80230688  0.11920323     0.20900
H1106       H  0.23741413  0.73192510  0.10482025     0.19300
H1107       H  0.20615959  0.78548088  0.10510645     0.19200
H1108       H  0.34878769  0.75014562  0.13201827     0.15100
C1109       C  0.61566071  0.40861929  0.07349730     0.30500
C1110       C  0.61683875  0.38003027  0.08621847    -0.35800
C1111       C  0.64102028  0.37408384  0.10360850     0.16500
C1112       C  0.66265072  0.39479296  0.10833246     0.22300
C1113       C  0.66147982  0.42353890  0.09556202    -0.33900
C1114       C  0.63721476  0.42950446  0.07799177     0.16400
O1115       O  0.59520571  0.41851943  0.05598053    -0.25900
C1116       C  0.60361341  0.44614060  0.04906092     0.06200
C1117       C  0.62965522  0.45428222  0.06203945    -0.30800
O1118       O  0.68375371  0.38385182  0.12461569    -0.22600
C1119       C  0.67545725  0.35575626  0.13027455    -0.02600
C1120       C  0.64898157  0.34859283  0.11775651    -0.17100
H1121       H  0.60022303  0.36340597  0.08246324     0.20900
H1122       H  0.67845510  0.43989026  0.09873309     0.19300
H1123       H  0.64139150  0.47516180  0.05977305     0.19200
H1124       H  0.63771877  0.32730902  0.11836734     0.15100
C1125       C  0.64999613  0.66963651  0.81976867     0.30500
C1126       C  0.62518851  0.67333108  0.83719195    -0.35800
C1127       C  0.61291051  0.64681982  0.84851906     0.16500
C1128       C  0.62448763  0.61877658  0.84318896     0.22300
C1129       C  0.64872021  0.61507826  0.82536132    -0.33900
C1130       C  0.66076045  0.64139840  0.81398553     0.16400
O1131       O  0.66691141  0.69120058  0.80956786    -0.25900
C1132       C  0.68850017  0.67646017  0.79661782     0.06200
C1133       C  0.68556905  0.64537559  0.79891519    -0.30800
O1134       O  0.61194673  0.59741383  0.85849787    -0.22600
C1135       C  0.59172010  0.61169461  0.87361230    -0.02600
C1136       C  0.59101033  0.64247087  0.86812885    -0.17100
H1137       H  0.61690105  0.69533064  0.84270250     0.20900
H1138       H  0.65841138  0.59326510  0.82181854     0.19300
H1139       H  0.70074564  0.62811386  0.79252158     0.19200
H1140       H  0.57785151  0.65934283  0.87872501     0.15100
C1141       C  0.63580448  0.62361929  0.07378701     0.30500
C1142       C  0.66466342  0.62701967  0.08164584    -0.35800
C1143       C  0.67029118  0.64802734  0.10356686     0.16500
C1144       C  0.64916018  0.66454971  0.11744909     0.22300
C1145       C  0.61999943  0.66142783  0.10920577    -0.33900
C1146       C  0.61428851  0.64045086  0.08673845     0.16400
O1147       O  0.62611087  0.60518400  0.05360452    -0.25900
C1148       C  0.59795772  0.61027407  0.05307591     0.06200
C1149       C  0.58919745  0.63208258  0.07314190    -0.30800
O1150       O  0.65988401  0.68244402  0.13802495    -0.22600
C1151       C  0.68818392  0.67716412  0.13681848    -0.02600
C1152       C  0.69563664  0.65619803  0.11554999    -0.17100
H1153       H  0.68164102  0.61415755  0.07129039     0.20900
H1154       H  0.60305427  0.67438185  0.11947951     0.19300
H1155       H  0.56764285  0.64045539  0.07707420     0.19200
H1156       H  0.71691638  0.64793794  0.11005448     0.15100
C1157       C  0.37932422  0.66545139  0.82284358     0.30500
C1158       C  0.40224136  0.66879351  0.84279547    -0.35800
C1159       C  0.41438560  0.64204346  0.85359018     0.16500
C1160       C  0.40443884  0.61403417  0.84545795     0.22300
C1161       C  0.38201135  0.61072489  0.82516485    -0.33900
C1162       C  0.37007717  0.63736986  0.81427872     0.16400
O1163       O  0.36269394  0.68713164  0.81254312    -0.25900
C1164       C  0.34262637  0.67275547  0.79695914     0.06200
C1165       C  0.34650400  0.64167947  0.79719361    -0.30800
O1166       O  0.41699378  0.59211299  0.86005498    -0.22600
C1167       C  0.43558815  0.60612576  0.87746996    -0.02600
C1168       C  0.43510153  0.63721679  0.87435700    -0.17100
H1169       H  0.40924802  0.69063841  0.85034460     0.20900
H1170       H  0.37359741  0.58888252  0.81925003     0.19300
H1171       H  0.33251672  0.62447893  0.78832263     0.19200
H1172       H  0.44707738  0.65379248  0.88672233     0.15100
C1173       C  0.66532484  0.41243748  0.81274811     0.30500
C1174       C  0.65660388  0.44080758  0.82257219    -0.35800
C1175       C  0.63271951  0.44132594  0.84132780     0.16500
C1176       C  0.61803987  0.41574166  0.84965253     0.22300
C1177       C  0.62653730  0.38727808  0.83936946    -0.33900
C1178       C  0.65076071  0.38674366  0.82078861     0.16400
O1179       O  0.68873381  0.40676865  0.79745104    -0.25900
C1180       C  0.68955993  0.37692254  0.79542547     0.06200
C1181       C  0.66608693  0.36331182  0.80937825    -0.30800
O1182       O  0.59769847  0.42140346  0.86923182    -0.22600
C1183       C  0.59958432  0.45095951  0.87345977    -0.02600
C1184       C  0.62090112  0.46444755  0.85657343    -0.17100
H1185       H  0.66848266  0.46096598  0.81708542     0.20900
H1186       H  0.61585658  0.36690194  0.84641356     0.19300
H1187       H  0.66151032  0.33968159  0.81201225     0.19200
H1188       H  0.62759138  0.48773542  0.85652485     0.15100
C1189       C  0.42491207  0.63933141  0.08528977     0.30500
C1190       C  0.41748615  0.66775069  0.09648605    -0.35800
C1191       C  0.39553633  0.66820419  0.11779284     0.16500
C1192       C  0.38210853  0.64245731  0.12754494     0.22300
C1193       C  0.38992990  0.61407756  0.11684833    -0.33900
C1194       C  0.41144907  0.61364589  0.09527685     0.16400
O1195       O  0.44280768  0.63384549  0.06335690    -0.25900
C1196       C  0.44053349  0.60431318  0.05918054     0.06200
C1197       C  0.42139367  0.59062174  0.07844799    -0.30800
O1198       O  0.35968800  0.64815006  0.14436409    -0.22600
C1199       C  0.35834335  0.67804042  0.14560966    -0.02600
C1200       C  0.38070119  0.69164422  0.12984373    -0.17100
H1201       H  0.42695700  0.68819069  0.08796283     0.20900
H1202       H  0.37869772  0.59389017  0.12352082     0.19300
H1203       H  0.41496393  0.56726596  0.07921352     0.19200
H1204       H  0.38421754  0.71522184  0.12560713     0.15100
C1205       C  0.38913265  0.37664080  0.82374311     0.30500
C1206       C  0.41087180  0.37563430  0.84526073    -0.35800
C1207       C  0.42176577  0.40347544  0.85471858     0.16500
C1208       C  0.41174676  0.43055722  0.84404839     0.22300
C1209       C  0.39053065  0.43153246  0.82197128    -0.33900
C1210       C  0.37983469  0.40365243  0.81232762     0.16400
O1211       O  0.37389573  0.35356674  0.81404132    -0.25900
C1212       C  0.35465782  0.36577495  0.79579846     0.06200
C1213       C  0.35768977  0.39696299  0.79376454    -0.30800
O1214       O  0.42325513  0.45387057  0.85777612    -0.22600
C1215       C  0.44129096  0.44153890  0.87714548    -0.02600
C1216       C  0.44138063  0.41028845  0.87602513    -0.17100
H1217       H  0.41800922  0.35464233  0.85481361     0.20900
H1218       H  0.38213763  0.45258443  0.81368624     0.19300
H1219       H  0.34401116  0.41275941  0.78223648     0.19200
H1220       H  0.45325380  0.39482926  0.88984661     0.15100
C1221       C  0.27640692  0.37789690  0.73428084     0.30500
C1222       C  0.24801669  0.38003404  0.72374771    -0.35800
C1223       C  0.24430035  0.37731956  0.69320137     0.16500
C1224       C  0.26687479  0.37187001  0.67434108     0.22300
C1225       C  0.29548634  0.37240739  0.68456470    -0.33900
C1226       C  0.29925190  0.37588403  0.71506228     0.16400
O1227       O  0.28390998  0.37179254  0.76173799    -0.25900
C1228       C  0.31215535  0.36630823  0.76042195     0.06200
C1229       C  0.32288496  0.37023418  0.73188393    -0.30800
O1230       O  0.25822644  0.35986145  0.64923626    -0.22600
C1231       C  0.22964452  0.35779328  0.65159706    -0.02600
C1232       C  0.21998831  0.37031583  0.67811261    -0.17100
H1233       H  0.22979664  0.37993795  0.73857788     0.20900
H1234       H  0.31332460  0.36657147  0.67036900     0.19300
H1235       H  0.34411708  0.36433444  0.72393095     0.19200
H1236       H  0.19886223  0.36784494  0.68783753     0.15100
C1237       C  0.12190640  0.41085750  0.57798540     0.30500
C1238       C  0.13061446  0.40244826  0.60637248    -0.35800
C1239       C  0.15202284  0.38021289  0.60798147     0.16500
C1240       C  0.16413782  0.36740560  0.58338505     0.22300
C1241       C  0.15525982  0.37555868  0.55505259    -0.33900
C1242       C  0.13373525  0.39754894  0.55343586     0.16400
O1243       O  0.10211848  0.43102244  0.57126090    -0.25900
C1244       C  0.10114004  0.43029402  0.54207336     0.06200
C1245       C  0.12030098  0.40991648  0.52979686    -0.30800
O1246       O  0.18508078  0.34859427  0.58984459    -0.22600
C1247       C  0.18657812  0.34909017  0.61906866    -0.02600
C1248       C  0.16609026  0.36819207  0.63150605    -0.17100
H1249       H  0.12153581  0.41270133  0.62580552     0.20900
H1250       H  0.16471769  0.36568603  0.53561604     0.19300
H1251       H  0.12360195  0.40478392  0.50682398     0.19200
H1252       H  0.16278261  0.37364624  0.65434241     0.15100
C1253       C  0.26066408  0.25413677  0.83017097     0.30500
C1254       C  0.28923052  0.26440615  0.83369029    -0.35800
C1255       C  0.29378073  0.29571844  0.83108312     0.16500
C1256       C  0.27192704  0.31518106  0.82345489     0.22300
C1257       C  0.24309605  0.30538893  0.82310248    -0.33900
C1258       C  0.23840431  0.27441667  0.82734107     0.16400
O1259       O  0.25259283  0.22620373  0.82370312    -0.25900
C1260       C  0.22445532  0.22842862  0.81758363     0.06200
C1261       C  0.21446854  0.25789559  0.82134877    -0.30800
O1262       O  0.28167273  0.33980643  0.81034648    -0.22600
C1263       C  0.31032631  0.33670635  0.80996091    -0.02600
C1264       C  0.31882388  0.31073841  0.82543442    -0.17100
H1265       H  0.30713249  0.24884258  0.83465006     0.20900
H1266       H  0.22585970  0.32010379  0.81601412     0.19300
H1267       H  0.19374509  0.26669837  0.81455334     0.19200
H1268       H  0.33998985  0.30048346  0.82482334     0.15100
C1269       C  0.18559193  0.25140200  0.73641942     0.30500
C1270       C  0.16880113  0.26972543  0.71731890    -0.35800
C1271       C  0.18429537  0.28500586  0.69487780     0.16500
C1272       C  0.21372608  0.28183722  0.69225175     0.22300
C1273       C  0.22979576  0.26352042  0.71014647    -0.33900
C1274       C  0.21487896  0.24900909  0.73205429     0.16400
O1275       O  0.17720377  0.23599096  0.76008775    -0.25900
C1276       C  0.20189741  0.22412566  0.77019965     0.06200
C1277       C  0.22554824  0.23184025  0.75328558    -0.30800
O1278       O  0.22502995  0.29826098  0.67191006    -0.22600
C1279       C  0.20307029  0.31259549  0.65990708    -0.02600
C1280       C  0.17660528  0.30524780  0.67311365    -0.17100
H1281       H  0.14578927  0.27240533  0.72012065     0.20900
H1282       H  0.25274811  0.26132322  0.70715124     0.19300
H1283       H  0.24785799  0.22583386  0.75686282     0.19200
H1284       H  0.15538661  0.31389757  0.66805293     0.15100
C1285       C  0.15764094  0.17618110  0.85005535     0.30500
C1286       C  0.14987025  0.16502637  0.87782936    -0.35800
C1287       C  0.12569713  0.14604148  0.87876888     0.16500
C1288       C  0.10998345  0.13859988  0.85410791     0.22300
C1289       C  0.11773033  0.14989225  0.82626469    -0.33900
C1290       C  0.14204859  0.16887770  0.82532219     0.16400
O1291       O  0.18098387  0.19198359  0.84396630    -0.25900
C1292       C  0.18049906  0.19543603  0.81485586     0.06200
C1293       C  0.15655100  0.18138865  0.80216829    -0.30800
O1294       O  0.08902498  0.11924144  0.85993845    -0.22600
C1295       C  0.09148144  0.11415390  0.88871174    -0.02600
C1296       C  0.11393586  0.13025717  0.90147810    -0.17100
H1297       H  0.16245547  0.16994762  0.89725311     0.20900
H1298       H  0.10617363  0.14354832  0.80657887     0.19300
H1299       H  0.15145308  0.17907929  0.77911733     0.19200
H1300       H  0.12108375  0.12968987  0.92410175     0.15100
C1301       C  0.34636102  0.24254376  0.70489144     0.30500
C1302       C  0.36484322  0.26510899  0.71656859    -0.35800
C1303       C  0.35219484  0.28442261  0.73784860     0.16500
C1304       C  0.32410153  0.28033690  0.74676247     0.22300
C1305       C  0.30661843  0.25822195  0.73603200    -0.33900
C1306       C  0.31823978  0.24076132  0.71433354     0.16400
O1307       O  0.35175002  0.22226358  0.68406925    -0.25900
C1308       C  0.32616862  0.20866147  0.68045859     0.06200
C1309       C  0.30476179  0.22046515  0.69817659    -0.30800
O1310       O  0.31453072  0.30110178  0.76376629    -0.22600
C1311       C  0.33643940  0.31951103  0.76755763    -0.02600
C1312       C  0.36105991  0.31048580  0.75181875    -0.17100
H1313       H  0.38671478  0.26812942  0.70887932     0.20900
H1314       H  0.28465832  0.25604498  0.74338209     0.19300
H1315       H  0.28229000  0.21396903  0.69959969     0.19200
H1316       H  0.38129298  0.32230299  0.74938870     0.15100
C1317       C  0.23730820  0.26713825  0.60514391     0.30500
C1318       C  0.23695603  0.23612778  0.61127363    -0.35800
C1319       C  0.26381392  0.22239404  0.61605530     0.16500
C1320       C  0.28936077  0.23770335  0.61255680     0.22300
C1321       C  0.28976632  0.26835052  0.60506014    -0.33900
C1322       C  0.26288498  0.28264512  0.60271399     0.16400
O1323       O  0.21545099  0.28512829  0.61044347    -0.25900
C1324       C  0.22697214  0.31244960  0.61395009     0.06200
C1325       C  0.25641165  0.31231184  0.60716636    -0.30800
O1326       O  0.31129838  0.22321450  0.62414696    -0.22600
C1327       C  0.29997327  0.19873934  0.63663142    -0.02600
C1328       C  0.27031163  0.19667252  0.63133145    -0.17100
H1329       H  0.21705896  0.22476914  0.61684265     0.20900
H1330       H  0.30958762  0.28115233  0.60593426     0.19300
H1331       H  0.27209927  0.32995899  0.60984894     0.19200
H1332       H  0.25482132  0.18118969  0.64044262     0.15100
C1333       C  0.26821432  0.14670666  0.70765805     0.30500
C1334       C  0.24005060  0.14609486  0.71887665    -0.35800
C1335       C  0.23699993  0.15161266  0.74912974     0.16500
C1336       C  0.26011829  0.15853779  0.76691177     0.22300
C1337       C  0.28847667  0.15523713  0.75641501    -0.33900
C1338       C  0.29157124  0.14849790  0.72631662     0.16400
O1339       O  0.27494252  0.15383882  0.68024612    -0.25900
C1340       C  0.30309629  0.15965988  0.68095251     0.06200
C1341       C  0.31480669  0.15373206  0.70881084    -0.30800
O1342       O  0.25244010  0.17497980  0.78995236    -0.22600
C1343       C  0.22389147  0.17805434  0.78737536    -0.02600
C1344       C  0.21325084  0.16182435  0.76332747    -0.17100
H1345       H  0.22156695  0.14640797  0.70434381     0.20900
H1346       H  0.30676532  0.16225967  0.76949625     0.19300
H1347       H  0.33592939  0.16054512  0.71647007     0.19200
H1348       H  0.19220607  0.16420401  0.75335839     0.15100
C1349       C  0.38183411  0.15633931  0.62495774     0.30500
C1350       C  0.41048692  0.15642189  0.61452465    -0.35800
C1351       C  0.41783072  0.13314215  0.59486150     0.16500
C1352       C  0.39833639  0.11133083  0.58648866     0.22300
C1353       C  0.37000678  0.11131748  0.59675847    -0.33900
C1354       C  0.36269709  0.13451283  0.61591464     0.16400
O1355       O  0.36955690  0.17630436  0.64260194    -0.25900
C1356       C  0.34228244  0.16686870  0.64453426     0.06200
C1357       C  0.33701058  0.14115327  0.62817426    -0.30800
O1358       O  0.40899085  0.09224056  0.56738359    -0.22600
C1359       C  0.43574980  0.10173975  0.56303731    -0.02600
C1360       C  0.44262057  0.12714797  0.57957163    -0.17100
H1361       H  0.42573065  0.17366567  0.62077403     0.20900
H1362       H  0.35447418  0.09465994  0.58974444     0.19300
H1363       H  0.31677304  0.12938262  0.62535626     0.19200
H1364       H  0.46259957  0.13969415  0.57974002     0.15100
C1365       C  0.16647394  0.38772274  0.32317935     0.30500
C1366       C  0.15402972  0.41622264  0.32618484    -0.35800
C1367       C  0.13380883  0.41938116  0.34873210     0.16500
C1368       C  0.12627798  0.39609802  0.36720555     0.22300
C1369       C  0.13852491  0.36731229  0.36392748    -0.33900
C1370       C  0.15881906  0.36412470  0.34115680     0.16400
O1371       O  0.18708883  0.38064932  0.30467604    -0.25900
C1372       C  0.19297003  0.35192753  0.31035785     0.06200
C1373       C  0.17566968  0.34033499  0.33283099    -0.30800
O1374       O  0.10721553  0.40445008  0.38715916    -0.22600
C1375       C  0.10248657  0.43336922  0.38115571    -0.02600
C1376       C  0.11844116  0.44380438  0.35747266    -0.17100
H1377       H  0.16013462  0.43484191  0.31221308     0.20900
H1378       H  0.13296429  0.34888161  0.37836042     0.19300
H1379       H  0.17633754  0.31822321  0.34264339     0.19200
H1380       H  0.11868133  0.46614177  0.34807005     0.15100
C1381       C  0.19108467  0.25252344  0.19638525     0.30500
C1382       C  0.17432137  0.26897282  0.21698841    -0.35800
C1383       C  0.19028535  0.28667712  0.23727798     0.16500
C1384       C  0.22002374  0.28726987  0.23651856     0.22300
C1385       C  0.23601673  0.27167180  0.21647487    -0.33900
C1386       C  0.22066432  0.25464337  0.19713757     0.16400
O1387       O  0.18246995  0.23371458  0.17536323    -0.25900
C1388       C  0.20744820  0.22445402  0.16354911     0.06200
C1389       C  0.23139260  0.23695765  0.17678405    -0.30800
O1390       O  0.23162818  0.30377329  0.25644125    -0.22600
C1391       C  0.20968730  0.31520763  0.27094786    -0.02600
C1392       C  0.18284161  0.30545462  0.26023743    -0.17100
H1393       H  0.15102178  0.26790888  0.21733453     0.20900
H1394       H  0.25924552  0.27246714  0.21601687     0.19300
H1395       H  0.25398964  0.23303373  0.17216674     0.19200
H1396       H  0.16153424  0.31114660  0.26810586     0.15100
C1397       C  0.15871254  0.17672156  0.08947551     0.30500
C1398       C  0.14806595  0.16972614  0.06148334    -0.35800
C1399       C  0.12450738  0.15005072  0.06051943     0.16500
C1400       C  0.11175445  0.13842793  0.08542288     0.22300
C1401       C  0.12207166  0.14599507  0.11358329    -0.33900
C1402       C  0.14611867  0.16531624  0.11451977     0.16400
O1403       O  0.18256214  0.19175738  0.09497934    -0.25900
C1404       C  0.18570771  0.19014848  0.12402700     0.06200
C1405       C  0.16331215  0.17416207  0.13738527    -0.30800
O1406       O  0.09189280  0.11803753  0.07918678    -0.22600
C1407       C  0.09218014  0.11652154  0.04994203    -0.02600
C1408       C  0.11191857  0.13608642  0.03724604    -0.17100
H1409       H  0.15856682  0.17763372  0.04172016     0.20900
H1410       H  0.11308086  0.13611870  0.13327127     0.19300
H1411       H  0.16082867  0.16843965  0.16030849     0.19200
H1412       H  0.11742648  0.13834829  0.01426102     0.15100
C1413       C  0.28146573  0.22740150  0.32126128     0.30500
C1414       C  0.25280131  0.23767687  0.32295884    -0.35800
C1415       C  0.24887119  0.26881725  0.32710350     0.16500
C1416       C  0.27156269  0.28869657  0.32778858     0.22300
C1417       C  0.30012788  0.27803719  0.32917969    -0.33900
C1418       C  0.30404909  0.24668900  0.32664839     0.16400
O1419       O  0.28996974  0.20218960  0.30834943    -0.25900
C1420       C  0.31858358  0.20479100  0.30584575     0.06200
C1421       C  0.32840204  0.23128764  0.31939489    -0.30800
O1422       O  0.26361200  0.31653877  0.32091667    -0.22600
C1423       C  0.23515836  0.31499291  0.31658816    -0.02600
C1424       C  0.22492083  0.28578063  0.32235598    -0.17100
H1425       H  0.23488544  0.22314632  0.31747827     0.20900
H1426       H  0.31824464  0.29333275  0.32837493     0.19300
H1427       H  0.34949582  0.24133534  0.31691869     0.19200
H1428       H  0.20379694  0.27701288  0.31695565     0.15100
C1429       C  0.26704720  0.16094434  0.17645319     0.30500
C1430       C  0.29615743  0.15962544  0.18513198    -0.35800
C1431       C  0.30157599  0.15822662  0.21554757     0.16500
C1432       C  0.27980744  0.15873227  0.23609462     0.22300
C1433       C  0.25074443  0.15740815  0.22732367    -0.33900
C1434       C  0.24531789  0.15819767  0.19687488     0.16400
O1435       O  0.25764550  0.17178473  0.15106578    -0.25900
C1436       C  0.22938921  0.17608727  0.15487714     0.06200
C1437       C  0.22051718  0.16576405  0.18262571    -0.30800
O1438       O  0.28912972  0.16666333  0.26249871    -0.22600
C1439       C  0.31742848  0.17095737  0.25917843    -0.02600
C1440       C  0.32635451  0.16428697  0.23051245    -0.17100
H1441       H  0.31337631  0.16358660  0.16957843     0.20900
H1442       H  0.23346592  0.15965498  0.24312654     0.19300
H1443       H  0.20017029  0.17046528  0.19327637     0.19200
H1444       H  0.34721928  0.16886127  0.22088044     0.15100
C1445       C  0.42986686  0.13617651  0.35110645     0.30500
C1446       C  0.42300988  0.16391240  0.33807144    -0.35800
C1447       C  0.39958067  0.16388689  0.31847329     0.16500
C1448       C  0.38420709  0.13828521  0.31178169     0.22300
C1449       C  0.39139543  0.11046690  0.32438536    -0.33900
C1450       C  0.41445019  0.11057627  0.34438210     0.16400
O1451       O  0.44886376  0.13166826  0.37232262    -0.25900
C1452       C  0.44538286  0.10286662  0.37941762     0.06200
C1453       C  0.42436769  0.08862727  0.36266460    -0.30800
O1454       O  0.36111544  0.14395585  0.29571921    -0.22600
C1455       C  0.36160200  0.17362726  0.29182110    -0.02600
C1456       C  0.38523967  0.18709714  0.30550686    -0.17100
H1457       H  0.43405965  0.18440239  0.34410793     0.20900
H1458       H  0.37874944  0.09048450  0.32028139     0.19300
H1459       H  0.41659920  0.06579164  0.36466639     0.19200
H1460       H  0.39008115  0.21077319  0.30737317     0.15100
C1461       C  0.35844136  0.29406007  0.19844451     0.30500
C1462       C  0.37470370  0.26888857  0.20837389    -0.35800
C1463       C  0.36111830  0.25076611  0.23012573     0.16500
C1464       C  0.33406261  0.25779994  0.24056983     0.22300
C1465       C  0.31903105  0.28265489  0.23187916    -0.33900
C1466       C  0.33173238  0.29946300  0.21033085     0.16400
O1467       O  0.36386982  0.31281055  0.17620997    -0.25900
C1468       C  0.33994257  0.32984615  0.17474670     0.06200
C1469       C  0.31930711  0.32081361  0.19489009    -0.30800
O1470       O  0.32324242  0.23797823  0.25797226    -0.22600
C1471       C  0.34358387  0.21759542  0.26093792    -0.02600
C1472       C  0.36810038  0.22398211  0.24381017    -0.17100
H1473       H  0.39540149  0.26311589  0.19901270     0.20900
H1474       H  0.29796968  0.28786344  0.24065926     0.19300
H1475       H  0.29696711  0.32751947  0.19674123     0.19200
H1476       H  0.38728837  0.21048131  0.24098718     0.15100
C1477       C  0.24633783  0.37997727  0.23707509     0.30500
C1478       C  0.24665430  0.38330791  0.20633665    -0.35800
C1479       C  0.27380733  0.38645710  0.19301470     0.16500
C1480       C  0.29880193  0.38875927  0.20917563     0.22300
C1481       C  0.29836036  0.38587022  0.24008080    -0.33900
C1482       C  0.27141684  0.38016584  0.25316354     0.16400
O1483       O  0.22451050  0.36905886  0.25206421    -0.25900
C1484       C  0.23550849  0.36007867  0.27782645     0.06200
C1485       C  0.26479943  0.36751584  0.27995301    -0.30800
O1486       O  0.32186100  0.38372372  0.19299943    -0.22600
C1487       C  0.31198399  0.37508876  0.16664893    -0.02600
C1488       C  0.28195867  0.37867086  0.16506952    -0.17100
H1489       H  0.22750089  0.37898453  0.19342230     0.20900
H1490       H  0.31816675  0.38346139  0.25244028     0.19300
H1491       H  0.28005902  0.36144839  0.29685295     0.19200
H1492       H  0.26725899  0.37145041  0.14817478     0.15100
C1493       C  0.26925956  0.24448663  0.10794902     0.30500
C1494       C  0.29791653  0.25451853  0.11050855    -0.35800
C1495       C  0.30209694  0.28582764  0.11151817     0.16500
C1496       C  0.27958839  0.30592987  0.11076624     0.22300
C1497       C  0.25120323  0.29598258  0.10578088    -0.33900
C1498       C  0.24702583  0.26466131  0.10411811     0.16400
O1499       O  0.25995758  0.21751311  0.11578014    -0.25900
C1500       C  0.23128618  0.22002833  0.11694626     0.06200
C1501       C  0.22221666  0.24862363  0.10771527    -0.30800
O1502       O  0.28700470  0.33278391  0.12080730    -0.22600
C1503       C  0.31481001  0.33034034  0.12788510    -0.02600
C1504       C  0.32544945  0.30169473  0.12081317    -0.17100
H1505       H  0.31529977  0.23905298  0.11534753     0.20900
H1506       H  0.23314397  0.31133368  0.10691487     0.19300
H1507       H  0.20090711  0.25811226  0.11058570     0.19200
H1508       H  0.34613940  0.29222488  0.12669376     0.15100
C1509       C  0.37807527  0.40394549  0.11652455     0.30500
C1510       C  0.38594209  0.43253475  0.10621447    -0.35800
C1511       C  0.41005780  0.43371494  0.08769520     0.16500
C1512       C  0.42574522  0.40854588  0.08018008     0.22300
C1513       C  0.41791279  0.37989210  0.09067403    -0.33900
C1514       C  0.39342610  0.37863857  0.10889720     0.16400
O1515       O  0.35510859  0.39767131  0.13237178    -0.25900
C1516       C  0.35531653  0.36781825  0.13510764     0.06200
C1517       C  0.37888537  0.35478213  0.12087763    -0.30800
O1518       O  0.44650166  0.41465088  0.06117516    -0.22600
C1519       C  0.44386068  0.44404580  0.05630216    -0.02600
C1520       C  0.42158011  0.45706154  0.07226748    -0.17100
H1521       H  0.37344505  0.45235892  0.11140185     0.20900
H1522       H  0.42947343  0.35985745  0.08421026     0.19300
H1523       H  0.38403153  0.33119247  0.11879193     0.19200
H1524       H  0.41424755  0.48014192  0.07166907     0.15100
loop_ 
_geom_bond_atom_site_label_1 
_geom_bond_atom_site_label_2 
_geom_bond_distance 
_geom_bond_site_symmetry_2 
_ccdc_geom_bond_type 
C1         C1468   1.536       .  S
C1         C1487   1.566       .  S
C1         C1503   1.553       .  S
C1         C1516   1.526       .  S
C2         C1420   1.559       .  S
C2         C1439   1.544       .  S
C2         C1455   1.519       .  S
C2         C1471   1.520       .  S
C3         C1388   1.523       .  S
C3         C1404   1.525       .  S
C3         C1436   1.553       .  S
C3         C1500   1.554       .  S
C4         C1372   1.524       .  S
C4         C1391   1.511       .  S
C4         C1423   1.559       .  S
C4         C1484   1.555       .  S
C5         C1308   1.526       .  S
C5         C1327   1.538       .  S
C5         C1340   1.555       .  S
C5         C1356   1.510       .  S
C6         C1260   1.550       .  S
C6         C1276   1.532       .  S
C6         C1292   1.528       .  S
C6         C1343   1.547       .  S
C7         C1231   1.549       .  S
C7         C1247   1.518       .  S
C7         C1279   1.519       .  S
C7         C1324   1.551       .  S
C8         C1212   1.524       .  S
C8         C1228   1.546       .  S
C8         C1263   1.558       .  S
C8         C1311   1.521       .  S
C9           N27   1.349       .  A
C9           C46   1.463       .  S
C9         C1519   1.476       .  S
N10          N27   1.325   1_556  A
N10          N32   1.321       .  A
N10         Co47   2.088       .  S
C11          N36   1.339       .  A
C11          C49   1.458       .  S
C11          H56   1.081       .  S
H12          C53   1.082       .  S
C13          N37   1.345   1_554  A
C13          C17   1.461       .  S
C13          H42   1.081       .  S
Co14         N32   2.097       .  S
Co14         N22   2.085       .  S
Co14         N54   2.085       .  S
Co14         N30   2.097       .  S
Co14        Cl58   2.466       .  S
N15          C53   1.343   1_556  A
N15          N22   1.321       .  A
N15         Co16   2.086       .  S
Co16         N19   2.088       .  S
Co16         N36   2.085       .  S
Co16         N23   2.084       .  S
Co16        Cl58   2.439       .  S
C17          N55   1.348       .  A
C17        C1148   1.467       .  S
N18          N25   1.321       .  A
N18          N48   1.326   1_556  A
N18         Co51   2.081       .  S
N19          N37   1.321       .  A
N19          N55   1.322   1_556  A
N20          C49   1.352       .  A
N20          N30   1.328       .  A
H21          C46   1.081       .  S
N22          N43   1.323   1_556  A
N23          N41   1.320       .  A
N23          N28   1.323       .  A
C24          N28   1.348       .  A
C24          C52   1.459       .  S
C24        C1135   1.465       .  S
N25          C40   1.343   1_556  A
N25         Co47   2.101       .  S
C26          N54   1.342       .  A
C26          C29   1.459       .  S
C26          H60   1.082       .  S
C29          N50   1.354       .  A
C29        C1215   1.480       .  S
N30          N36   1.321       .  A
N31          C57   1.339       .  A
N31          N33   1.321       .  A
N31         Co47   2.084       .  S
N32          C46   1.345   1_556  A
N33          N61   1.326       .  A
N33         Co51   2.085       .  S
H34          C57   1.081       .  S
H35          C52   1.081       .  S
N37         Co51   2.088       .  S
N38          N50   1.330       .  A
N38          N54   1.321       .  A
N38         Co47   2.110       .  S
C39          N43   1.348       .  A
C39          C53   1.460       .  S
C39        C1116   1.467       .  S
C40          C59   1.462       .  S
C40          H44   1.081       .  S
N41          C52   1.344       .  A
N41         Co51   2.085       .  S
C45          N61   1.349       .  A
C45          C57   1.455       .  S
C45        C1167   1.464       .  S
Co47        Cl58   2.438       .  S
N48          C59   1.349       .  A
C49        C1183   1.473       .  S
Co51        Cl58   2.472       .  S
C59        C1196   1.473       .  S
C62        C1068   1.518       .  S
C62        C1087   1.547       .  S
C62        C1103   1.550       .  S
C62        C1199   1.527       .  S
C63        C1020   1.534       .  S
C63        C1036   1.541       .  S
C63        C1055   1.523       .  S
C63        C1100   1.561       .  S
C64         C988   1.541       .  S
C64        C1007   1.522       .  S
C64        C1023   1.537       .  S
C64        C1084   1.557       .  S
C65         C972   1.527       .  S
C65         C991   1.554       .  S
C65        C1039   1.550       .  S
C65        C1071   1.527       .  S
C66          N84   1.355       .  A
C66         C103   1.459       .  S
C66         C975   1.483       .  S
N67          N84   1.331       .  A
N67          N89   1.321       .  A
N67        Co104   2.108       .  S
C68          N93   1.346       .  A
C68         C106   1.461       .  S
C68         H113   1.081       .  S
H69         C110   1.081       .  S
C70          N94   1.339       .  A
C70          C74   1.455       .  S
C70          H99   1.082       .  S
Co71         N89   2.092   1_545  S
Co71         N79   2.092       .  S
Co71        N111   2.097   1_545  S
Co71         N87   2.096       .  S
Co71       Cl115   2.437       .  S
N72         C110   1.345       .  A
N72          N79   1.321       .  A
N72         Co73   2.096       .  S
Co73         N76   2.085       .  S
Co73         N93   2.087       .  S
Co73         N80   2.095       .  S
Co73       Cl115   2.477       .  S
C74         N112   1.350       .  A
C74         C892   1.468       .  S
N75          N82   1.322       .  A
N75         N105   1.326       .  A
N75        Co108   2.094   1_565  S
N76          N94   1.321       .  A
N76         N112   1.326       .  A
N77         C106   1.350       .  A
N77          N87   1.324       .  A
H78         C103   1.082   1_545  S
N79         N100   1.326       .  A
N80          N98   1.321       .  A
N80          N85   1.328       .  A
C81          N85   1.352       .  A
C81         C109   1.458       .  S
C81         C956   1.475       .  S
N82          C97   1.345       .  A
N82        Co104   2.095       .  S
C83         N111   1.342       .  A
C83          C86   1.461       .  S
C83         H117   1.081   1_565  S
C86         N107   1.351       .  A
C86         C943   1.477       .  S
N87          N93   1.321       .  A
N88         C114   1.348       .  A
N88          N90   1.321       .  A
N88        Co104   2.106       .  S
N89         C103   1.341       .  A
N90         N118   1.325       .  A
N90        Co108   2.088   1_565  S
H91         C114   1.081       .  S
H92         C109   1.081       .  S
N94        Co108   2.086       .  S
N95         N107   1.328       .  A
N95         N111   1.322       .  A
N95        Co104   2.095       .  S
C96         N100   1.350       .  A
C96         C110   1.461       .  S
C96        C1452   1.475       .  S
C97         C116   1.462       .  S
C97         H101   1.081       .  S
N98         C109   1.340       .  A
N98        Co108   2.091       .  S
C102        N118   1.349       .  A
C102        C114   1.467       .  S
C102        C908   1.480       .  S
Co104      Cl115   2.479   1_565  S
N105        C116   1.350       .  A
C106       C1359   1.472       .  S
Co108      Cl115   2.436       .  S
C116        C924   1.477       .  S
C119        C847   1.534       .  S
C119        C860   1.545       .  S
C119        C876   1.554       .  S
C119       C1180   1.523       .  S
C120        C799   1.552       .  S
C120        C815   1.527       .  S
C120        C828   1.515       .  S
C120        C879   1.558       .  S
C121        C780   1.543       .  S
C121        C796   1.555       .  S
C121        C844   1.524       .  S
C121        C959   1.515       .  S
C122        C767   1.517       .  S
C122        C783   1.539       .  S
C122        C812   1.522       .  S
C122        C863   1.543       .  S
C123        C716   1.549       .  S
C123        C732   1.539       .  S
C123        C748   1.523       .  S
C123       C1164   1.518       .  S
C124        C687   1.548       .  S
C124        C703   1.549       .  S
C124        C751   1.520       .  S
C124        C940   1.522       .  S
C125        C652   1.539       .  S
C125        C668   1.525       .  S
C125        C684   1.551       .  S
C125        C719   1.561       .  S
C126        C636   1.522       .  S
C126        C655   1.551       .  S
C126        C700   1.539       .  S
C126        C735   1.561       .  S
C127        C588   1.551       .  S
C127        C604   1.552       .  S
C127        C620   1.566       .  S
C127        C927   1.516       .  S
C128        C540   1.545       .  S
C128        C556   1.527       .  S
C128        C572   1.525       .  S
C128        C623   1.545       .  S
C129        C524   1.527       .  S
C129        C543   1.547       .  S
C129        C591   1.550       .  S
C129       C1151   1.510       .  S
C130        C508   1.519       .  S
C130        C527   1.542       .  S
C130        C559   1.521       .  S
C130        C607   1.547       .  S
C131        C460   1.529       .  S
C131        C476   1.552       .  S
C131        C492   1.547       .  S
C131       C1132   1.517       .  S
C132        C412   1.551       .  S
C132        C428   1.537       .  S
C132        C447   1.519       .  S
C132        C479   1.562       .  S
C133        C396   1.544       .  S
C133        C415   1.538       .  S
C133        C463   1.525       .  S
C133        C911   1.528       .  S
C134        C380   1.520       .  S
C134        C399   1.541       .  S
C134        C431   1.547       .  S
C134        C495   1.560       .  S
C135        N153   1.351       .  A
C135        C172   1.461       .  S
C135       C1407   1.477       .  S
N136        N153   1.328       .  A
N136        N158   1.321       .  A
N136       Co173   2.091       .  S
C137        N162   1.346       .  A
C137        C175   1.463       .  S
C137        H182   1.082       .  S
H138        C179   1.082       .  S
C139        N163   1.339       .  A
C139        C143   1.457       .  S
C139        H168   1.082       .  S
Co140       N158   2.096   1_556  S
Co140       N148   2.093       .  S
Co140       N180   2.095   1_546  S
Co140       N156   2.102   1_545  S
Co140      Cl184   2.438       .  S
N141        C179   1.348       .  A
N141        N148   1.321       .  A
N141       Co142   2.105       .  S
Co142       N145   2.091   1_455  S
Co142       N162   2.094   1_545  S
Co142       N149   2.096   1_445  S
Co142      Cl184   2.473       .  S
C143        N181   1.349       .  A
C143        C764   1.467       .  S
N144        N151   1.320       .  A
N144        N174   1.326       .  A
N144       Co177   2.095   1_554  S
N145        N163   1.322       .  A
N145        N181   1.326       .  A
N146        C175   1.352       .  A
N146        N156   1.327       .  A
H147        C172   1.081   1_556  S
N148        N169   1.326       .  A
N149        N167   1.321       .  A
N149        N154   1.328       .  A
C150        N154   1.352       .  A
C150        C178   1.457       .  S
C150        C383   1.472       .  S
N151        C166   1.344       .  A
N151       Co173   2.087   1_655  S
C152        N180   1.341       .  A
C152        C155   1.458       .  S
C152        H186   1.082   1_554  S
C155        N176   1.350       .  A
C155       C1052   1.472       .  S
N156        N162   1.321       .  A
N157        C183   1.342       .  A
N157        N159   1.320       .  A
N157       Co173   2.090   1_665  S
N158        C172   1.341       .  A
N159        N187   1.327       .  A
N159       Co177   2.093   1_564  S
H160        C183   1.081       .  S
H161        C178   1.081       .  S
N163       Co177   2.085       .  S
N164        N176   1.327       .  A
N164        N180   1.322       .  A
N164       Co173   2.086   1_565  S
C165        N169   1.350       .  A
C165        C179   1.465       .  S
C165       C1295   1.482       .  S
C166        C185   1.461       .  S
C166        H170   1.081       .  S
N167        C178   1.338       .  A
N167       Co177   2.080   1_565  S
C171        N187   1.351       .  A
C171        C183   1.459       .  S
C171        C511   1.472       .  S
Co173      Cl184   2.475   1_554  S
N174        C185   1.350       .  A
C175        C639   1.480       .  S
Co177      Cl184   2.439   1_655  S
C185        C367   1.473       .  S
C188        C319   1.554       .  S
C188        C335   1.555       .  S
C188        C348   1.549       .  S
C188        C895   1.510       .  S
C189        C287   1.548       .  S
C189        C300   1.533       .  S
C189        C351   1.558       .  S
C189        C364   1.523       .  S
C190        C271   1.551       .  S
C190        C284   1.550       .  S
C190        C316   1.557       .  S
C190       C1119   1.507       .  S
C191        C252   1.514       .  S
C191        C268   1.551       .  S
C191        C303   1.536       .  S
C191        C332   1.546       .  S
C192        N210   1.348       .  A
C192        C229   1.463       .  S
C192       C1375   1.473       .  S
N193        N210   1.325       .  A
N193        N215   1.321       .  A
N193       Co230   2.082       .  S
C194        N219   1.338       .  A
C194        C232   1.454       .  S
C194        H239   1.082       .  S
H195        C236   1.081       .  S
C196        N220   1.344       .  A
C196        C200   1.461       .  S
C196        H225   1.082       .  S
Co197       N215   2.094       .  S
Co197       N205   2.087       .  S
Co197       N237   2.097   1_455  S
Co197       N213   2.094   1_455  S
Co197      Cl241   2.467       .  S
N198        C236   1.341       .  A
N198        N205   1.322       .  A
N198       Co199   2.094       .  S
Co199       N202   2.090       .  S
Co199       N219   2.083   1_455  S
Co199       N206   2.097   1_455  S
Co199      Cl241   2.439       .  S
C200        N238   1.350       .  A
C200        C671   1.474       .  S
N201        N208   1.321       .  A
N201        N231   1.325       .  A
N201       Co234   2.083       .  S
N202        N220   1.320       .  A
N202        N238   1.325       .  A
N203        C232   1.352       .  A
N203        N213   1.328       .  A
H204        C229   1.081       .  S
N205        N226   1.326       .  A
N206        N224   1.321       .  A
N206        N211   1.327       .  A
C207        N211   1.351       .  A
C207        C235   1.459       .  S
C207        C444   1.473       .  S
N208        C223   1.339       .  A
N208       Co230   2.085       .  S
C209        N237   1.344       .  A
C209        C212   1.461       .  S
C209        H243   1.082       .  S
C212        N233   1.348       .  A
C212        C255   1.470       .  S
N213        N219   1.322       .  A
N214        C240   1.342       .  A
N214        N216   1.321       .  A
N214       Co230   2.088   1_655  S
N215        C229   1.342       .  A
N216        N244   1.324       .  A
N216       Co234   2.082   1_655  S
H217        C240   1.082       .  S
H218        C235   1.081       .  S
N220       Co234   2.087       .  S
N221        N233   1.324       .  A
N221        N237   1.322       .  A
N221       Co230   2.083   1_655  S
C222        N226   1.349       .  A
C222        C236   1.460       .  S
C222       C1004   1.472       .  S
C223        C242   1.457       .  S
C223        H227   1.082       .  S
N224        C235   1.340       .  A
N224       Co234   2.082   1_655  S
C228        N244   1.348       .  A
C228        C240   1.460       .  S
C228        C831   1.468       .  S
Co230      Cl241   2.444       .  S
N231        C242   1.349       .  A
C232        C575   1.469       .  S
Co234      Cl241   2.467       .  S
C242       C1244   1.465       .  S
C245        C250   1.379       .  A
C245        C246   1.404       .  A
C245        O251   1.320       .  A
C246        H257   1.082       .  S
C246        C247   1.404       .  A
C247        C256   1.361       .  A
C247        C248   1.381       .  A
C248        C249   1.402       .  A
C248        O254   1.320       .  A
C249        H258   1.082       .  S
C249        C250   1.403       .  A
C250        C253   1.358       .  A
O251        C252   1.333       .  A
C252        C253   1.396       .  A
C253        H259   1.082       .  S
O254        C255   1.330       .  A
C255        C256   1.392       .  A
C256        H260   1.082       .  S
C261        C266   1.376       .  A
C261        C262   1.390       .  A
C261        O267   1.300       .  A
C262        H273   1.083       .  S
C262        C263   1.388       .  A
C263        C272   1.348       .  A
C263        C264   1.375       .  A
C264        C265   1.418       .  A
C264        O270   1.324       .  A
C265        H274   1.082       .  S
C265        C266   1.414       .  A
C266        C269   1.380       .  A
O267        C268   1.329       .  A
C268        C269   1.404       .  A
C269        H275   1.080       .  S
O270        C271   1.339       .  A
C271        C272   1.395       .  A
C272        H276   1.079       .  S
C277        C282   1.378       .  A
C277        C278   1.395       .  A
C277        O283   1.309       .  A
C278        H289   1.083       .  S
C278        C279   1.396       .  A
C279        C288   1.355       .  A
C279        C280   1.376       .  A
C280        C281   1.411       .  A
C280        O286   1.322       .  A
C281        H290   1.083       .  S
C281        C282   1.410       .  A
C282        C285   1.372       .  A
O283        C284   1.328       .  A
C284        C285   1.401       .  A
C285        H291   1.083       .  S
O286        C287   1.339       .  A
C287        C288   1.399       .  A
C288        H292   1.074       .  S
C293        C298   1.376       .  A
C293        C294   1.418       .  A
C293        O299   1.332       .  A
C294        H305   1.082       .  S
C294        C295   1.419       .  A
C295        C304   1.382       .  A
C295        C296   1.378       .  A
C296        C297   1.387       .  A
C296        O302   1.299       .  A
C297        H306   1.083       .  S
C297        C298   1.384       .  A
C298        C301   1.338       .  A
O299        C300   1.341       .  A
C300        C301   1.392       .  A
C301        H307   1.083       .  S
O302        C303   1.328       .  A
C303        C304   1.409       .  A
C304        H308   1.082       .  S
C309        C314   1.374       .  A
C309        C310   1.411       .  A
C309        O315   1.318       .  A
C310        H321   1.082       .  S
C310        C311   1.407       .  A
C311        C320   1.370       .  A
C311        C312   1.372       .  A
C312        C313   1.394       .  A
C312        O318   1.305       .  A
C313        H322   1.083       .  S
C313        C314   1.394       .  A
C314        C317   1.352       .  A
O315        C316   1.338       .  A
C316        C317   1.400       .  A
C317        H323   1.076       .  S
O318        C319   1.330       .  A
C319        C320   1.405       .  A
C320        H324   1.076       .  S
C325        C330   1.377       .  A
C325        C326   1.409       .  A
C325        O331   1.315       .  A
C326        H337   1.083       .  S
C326        C327   1.404       .  A
C327        C336   1.372       .  A
C327        C328   1.376       .  A
C328        C329   1.402       .  A
C328        O334   1.310       .  A
C329        H338   1.083       .  S
C329        C330   1.400       .  A
C330        C333   1.367       .  A
O331        C332   1.338       .  A
C332        C333   1.398       .  A
C333        H339   1.075       .  S
O334        C335   1.331       .  A
C335        C336   1.401       .  A
C336        H340   1.081       .  S
C341        C346   1.374       .  A
C341        C342   1.403       .  A
C341        O347   1.321       .  A
C342        H353   1.083       .  S
C342        C343   1.407       .  A
C343        C352   1.360       .  A
C343        C344   1.379       .  A
C344        C345   1.408       .  A
C344        O350   1.322       .  A
C345        H354   1.082       .  S
C345        C346   1.406       .  A
C346        C349   1.363       .  A
O347        C348   1.334       .  A
C348        C349   1.401       .  A
C349        H355   1.078       .  S
O350        C351   1.330       .  A
C351        C352   1.405       .  A
C352        H356   1.083       .  S
C357        C362   1.378       .  A
C357        C358   1.408       .  A
C357        O363   1.323       .  A
C358        H369   1.082       .  S
C358        C359   1.408       .  A
C359        C368   1.366       .  A
C359        C360   1.380       .  A
C360        C361   1.402       .  A
C360        O366   1.319       .  A
C361        H370   1.082       .  S
C361        C362   1.402       .  A
C362        C365   1.358       .  A
O363        C364   1.335       .  A
C364        C365   1.397       .  A
C365        H371   1.082       .  S
O366        C367   1.330       .  A
C367        C368   1.393       .  A
C368        H372   1.082       .  S
C373        C378   1.378       .  A
C373        C374   1.399       .  A
C373        O379   1.311       .  A
C374        H385   1.083       .  S
C374        C375   1.397       .  A
C375        C384   1.357       .  A
C375        C376   1.380       .  A
C376        C377   1.410       .  A
C376        O382   1.323       .  A
C377        H386   1.082       .  S
C377        C378   1.409       .  A
C378        C381   1.371       .  A
O379        C380   1.332       .  A
C380        C381   1.399       .  A
C381        H387   1.081       .  S
O382        C383   1.334       .  A
C383        C384   1.389       .  A
C384        H388   1.082       .  S
C389        C394   1.380       .  A
C389        C390   1.404       .  A
C389        O395   1.320       .  A
C390        H401   1.083       .  S
C390        C391   1.404       .  A
C391        C400   1.359       .  A
C391        C392   1.375       .  A
C392        C393   1.404       .  A
C392        O398   1.321       .  A
C393        H402   1.083       .  S
C393        C394   1.406       .  A
C394        C397   1.362       .  A
O395        C396   1.333       .  A
C396        C397   1.401       .  A
C397        H403   1.083       .  S
O398        C399   1.331       .  A
C399        C400   1.401       .  A
C400        H404   1.080       .  S
C405        C410   1.375       .  A
C405        C406   1.405       .  A
C405        O411   1.321       .  A
C406        H417   1.083       .  S
C406        C407   1.406       .  A
C407        C416   1.362       .  A
C407        C408   1.380       .  A
C408        C409   1.406       .  A
C408        O414   1.321       .  A
C409        H418   1.083       .  S
C409        C410   1.405       .  A
C410        C413   1.360       .  A
O411        C412   1.332       .  A
C412        C413   1.402       .  A
C413        H419   1.078       .  S
O414        C415   1.334       .  A
C415        C416   1.400       .  A
C416        H420   1.083       .  S
C421        C426   1.375       .  A
C421        C422   1.373       .  A
C421        O427   1.294       .  A
C422        H433   1.078       .  S
C422        C423   1.376       .  A
C423        C432   1.326       .  A
C423        C424   1.373       .  A
C424        C425   1.423       .  A
C424        O430   1.334       .  A
C425        H434   1.082       .  S
C425        C426   1.423       .  A
C426        C429   1.382       .  A
O427        C428   1.322       .  A
C428        C429   1.410       .  A
C429        H435   1.081       .  S
O430        C431   1.346       .  A
C431        C432   1.392       .  A
C432        H436   1.081       .  S
C437        C442   1.380       .  A
C437        C438   1.405       .  A
C437        O443   1.321       .  A
C438        H449   1.082       .  S
C438        C439   1.405       .  A
C439        C448   1.363       .  A
C439        C440   1.378       .  A
C440        C441   1.404       .  A
C440        O446   1.318       .  A
C441        H450   1.082       .  S
C441        C442   1.403       .  A
C442        C445   1.362       .  A
O443        C444   1.332       .  A
C444        C445   1.392       .  A
C445        H451   1.082       .  S
O446        C447   1.334       .  A
C447        C448   1.397       .  A
C448        H452   1.082       .  S
C453        C458   1.379       .  A
C453        C454   1.418       .  A
C453        O459   1.333       .  A
C454        H465   1.082       .  S
C454        C455   1.418       .  A
C455        C464   1.381       .  A
C455        C456   1.379       .  A
C456        C457   1.384       .  A
C456        O462   1.299       .  A
C457        H466   1.084       .  S
C457        C458   1.382       .  A
C458        C461   1.333       .  A
O459        C460   1.339       .  A
C460        C461   1.386       .  A
C461        H467   1.077       .  S
O462        C463   1.326       .  A
C463        C464   1.403       .  A
C464        H468   1.081       .  S
C469        C474   1.374       .  A
C469        C470   1.405       .  A
C469        O475   1.313       .  A
C470        H481   1.083       .  S
C470        C471   1.403       .  A
C471        C480   1.368       .  A
C471        C472   1.376       .  A
C472        C473   1.411       .  A
C472        O478   1.317       .  A
C473        H482   1.082       .  S
C473        C474   1.406       .  A
C474        C477   1.373       .  A
O475        C476   1.337       .  A
C476        C477   1.402       .  A
C477        H483   1.069       .  S
O478        C479   1.340       .  A
C479        C480   1.403       .  A
C480        H484   1.076       .  S
C485        C490   1.375       .  A
C485        C486   1.403       .  A
C485        O491   1.312       .  A
C486        H497   1.083       .  S
C486        C487   1.402       .  A
C487        C496   1.368       .  A
C487        C488   1.379       .  A
C488        C489   1.411       .  A
C488        O494   1.318       .  A
C489        H498   1.083       .  S
C489        C490   1.407       .  A
C490        C493   1.374       .  A
O491        C492   1.336       .  A
C492        C493   1.400       .  A
C493        H499   1.069       .  S
O494        C495   1.338       .  A
C495        C496   1.400       .  A
C496        H500   1.076       .  S
C501        C506   1.378       .  A
C501        C502   1.403       .  A
C501        O507   1.313       .  A
C502        H513   1.082       .  S
C502        C503   1.401       .  A
C503        C512   1.364       .  A
C503        C504   1.380       .  A
C504        C505   1.408       .  A
C504        O510   1.320       .  A
C505        H514   1.082       .  S
C505        C506   1.405       .  A
C506        C509   1.370       .  A
O507        C508   1.334       .  A
C508        C509   1.395       .  A
C509        H515   1.082       .  S
O510        C511   1.332       .  A
C511        C512   1.390       .  A
C512        H516   1.083       .  S
C517        C522   1.380       .  A
C517        C518   1.402       .  A
C517        O523   1.323       .  A
C518        H529   1.083       .  S
C518        C519   1.405       .  A
C519        C528   1.355       .  A
C519        C520   1.381       .  A
C520        C521   1.400       .  A
C520        O526   1.320       .  A
C521        H530   1.083       .  S
C521        C522   1.402       .  A
C522        C525   1.354       .  A
O523        C524   1.332       .  A
C524        C525   1.395       .  A
C525        H531   1.082       .  S
O526        C527   1.328       .  A
C527        C528   1.400       .  A
C528        H532   1.083       .  S
C533        C538   1.377       .  A
C533        C534   1.409       .  A
C533        O539   1.332       .  A
C534        H545   1.083       .  S
C534        C535   1.415       .  A
C535        C544   1.365       .  A
C535        C536   1.384       .  A
C536        C537   1.397       .  A
C536        O542   1.321       .  A
C537        H546   1.083       .  S
C537        C538   1.401       .  A
C538        C541   1.348       .  A
O539        C540   1.336       .  A
C540        C541   1.399       .  A
C541        H547   1.080       .  S
O542        C543   1.328       .  A
C543        C544   1.402       .  A
C544        H548   1.083       .  S
C549        C554   1.378       .  A
C549        C550   1.419       .  A
C549        O555   1.333       .  A
C550        H561   1.081       .  S
C550        C551   1.419       .  A
C551        C560   1.382       .  A
C551        C552   1.380       .  A
C552        C553   1.382       .  A
C552        O558   1.297       .  A
C553        H562   1.082       .  S
C553        C554   1.381       .  A
C554        C557   1.332       .  A
O555        C556   1.340       .  A
C556        C557   1.386       .  A
C557        H563   1.081       .  S
O558        C559   1.324       .  A
C559        C560   1.403       .  A
C560        H564   1.081       .  S
C565        C570   1.378       .  A
C565        C566   1.400       .  A
C565        O571   1.316       .  A
C566        H577   1.082       .  S
C566        C567   1.400       .  A
C567        C576   1.357       .  A
C567        C568   1.380       .  A
C568        C569   1.407       .  A
C568        O574   1.323       .  A
C569        H578   1.082       .  S
C569        C570   1.407       .  A
C570        C573   1.363       .  A
O571        C572   1.333       .  A
C572        C573   1.400       .  A
C573        H579   1.078       .  S
O574        C575   1.333       .  A
C575        C576   1.388       .  A
C576        H580   1.082       .  S
C581        C586   1.376       .  A
C581        C582   1.376       .  A
C581        O587   1.294       .  A
C582        H593   1.084       .  S
C582        C583   1.377       .  A
C583        C592   1.326       .  A
C583        C584   1.372       .  A
C584        C585   1.423       .  A
C584        O590   1.335       .  A
C585        H594   1.083       .  S
C585        C586   1.423       .  A
C586        C589   1.383       .  A
O587        C588   1.323       .  A
C588        C589   1.412       .  A
C589        H595   1.082       .  S
O590        C591   1.346       .  A
C591        C592   1.392       .  A
C592        H596   1.079       .  S
C597        C602   1.373       .  A
C597        C598   1.403       .  A
C597        O603   1.314       .  A
C598        H609   1.083       .  S
C598        C599   1.403       .  A
C599        C608   1.364       .  A
C599        C600   1.377       .  A
C600        C601   1.411       .  A
C600        O606   1.320       .  A
C601        H610   1.082       .  S
C601        C602   1.408       .  A
C602        C605   1.370       .  A
O603        C604   1.335       .  A
C604        C605   1.402       .  A
C605        H611   1.073       .  S
O606        C607   1.341       .  A
C607        C608   1.401       .  A
C608        H612   1.076       .  S
C613        C618   1.373       .  A
C613        C614   1.416       .  A
C613        O619   1.320       .  A
C614        H625   1.082       .  S
C614        C615   1.412       .  A
C615        C624   1.380       .  A
C615        C616   1.377       .  A
C616        C617   1.403       .  A
C616        O622   1.313       .  A
C617        H626   1.083       .  S
C617        C618   1.401       .  A
C618        C621   1.366       .  A
O619        C620   1.343       .  A
C620        C621   1.401       .  A
C621        H627   1.068       .  S
O622        C623   1.334       .  A
C623        C624   1.404       .  A
C624        H628   1.080       .  S
C629        C634   1.379       .  A
C629        C630   1.412       .  A
C629        O635   1.330       .  A
C630        H641   1.082       .  S
C630        C631   1.413       .  A
C631        C640   1.371       .  A
C631        C632   1.380       .  A
C632        C633   1.401       .  A
C632        O638   1.320       .  A
C633        H642   1.082       .  S
C633        C634   1.402       .  A
C634        C637   1.355       .  A
O635        C636   1.336       .  A
C636        C637   1.394       .  A
C637        H643   1.083       .  S
O638        C639   1.330       .  A
C639        C640   1.396       .  A
C640        H644   1.082       .  S
C645        C650   1.375       .  A
C645        C646   1.373       .  A
C645        O651   1.292       .  A
C646        H657   1.081       .  S
C646        C647   1.375       .  A
C647        C656   1.324       .  A
C647        C648   1.371       .  A
C648        C649   1.426       .  A
C648        O654   1.337       .  A
C649        H658   1.082       .  S
C649        C650   1.426       .  A
C650        C653   1.387       .  A
O651        C652   1.321       .  A
C652        C653   1.412       .  A
C653        H659   1.082       .  S
O654        C655   1.348       .  A
C655        C656   1.391       .  A
C656        H660   1.080       .  S
C661        C666   1.378       .  A
C661        C662   1.409       .  A
C661        O667   1.321       .  A
C662        H673   1.082       .  S
C662        C663   1.407       .  A
C663        C672   1.368       .  A
C663        C664   1.380       .  A
C664        C665   1.404       .  A
C664        O670   1.319       .  A
C665        H674   1.082       .  S
C665        C666   1.403       .  A
C666        C669   1.363       .  A
O667        C668   1.336       .  A
C668        C669   1.397       .  A
C669        H675   1.082       .  S
O670        C671   1.330       .  A
C671        C672   1.394       .  A
C672        H676   1.082       .  S
C677        C682   1.375       .  A
C677        C678   1.406       .  A
C677        O683   1.319       .  A
C678        H689   1.082       .  S
C678        C679   1.406       .  A
C679        C688   1.366       .  A
C679        C680   1.376       .  A
C680        C681   1.408       .  A
C680        O686   1.319       .  A
C681        H690   1.082       .  S
C681        C682   1.406       .  A
C682        C685   1.366       .  A
O683        C684   1.337       .  A
C684        C685   1.403       .  A
C685        H691   1.078       .  S
O686        C687   1.340       .  A
C687        C688   1.402       .  A
C688        H692   1.077       .  S
C693        C698   1.376       .  A
C693        C694   1.405       .  A
C693        O699   1.323       .  A
C694        H705   1.082       .  S
C694        C695   1.407       .  A
C695        C704   1.360       .  A
C695        C696   1.378       .  A
C696        C697   1.404       .  A
C696        O702   1.321       .  A
C697        H706   1.082       .  S
C697        C698   1.404       .  A
C698        C701   1.358       .  A
O699        C700   1.332       .  A
C700        C701   1.400       .  A
C701        H707   1.081       .  S
O702        C703   1.331       .  A
C703        C704   1.404       .  A
C704        H708   1.083       .  S
C709        C714   1.378       .  A
C709        C710   1.410       .  A
C709        O715   1.330       .  A
C710        H721   1.082       .  S
C710        C711   1.413       .  A
C711        C720   1.364       .  A
C711        C712   1.377       .  A
C712        C713   1.402       .  A
C712        O718   1.321       .  A
C713        H722   1.083       .  S
C713        C714   1.404       .  A
C714        C717   1.354       .  A
O715        C716   1.335       .  A
C716        C717   1.400       .  A
C717        H723   1.083       .  S
O718        C719   1.330       .  A
C719        C720   1.409       .  A
C720        H724   1.083       .  S
C725        C730   1.377       .  A
C725        C726   1.405       .  A
C725        O731   1.313       .  A
C726        H737   1.083       .  S
C726        C727   1.403       .  A
C727        C736   1.370       .  A
C727        C728   1.379       .  A
C728        C729   1.412       .  A
C728        O734   1.319       .  A
C729        H738   1.083       .  S
C729        C730   1.407       .  A
C730        C733   1.376       .  A
O731        C732   1.335       .  A
C732        C733   1.399       .  A
C733        H739   1.079       .  S
O734        C735   1.338       .  A
C735        C736   1.400       .  A
C736        H740   1.078       .  S
C741        C746   1.379       .  A
C741        C742   1.418       .  A
C741        O747   1.331       .  A
C742        H753   1.082       .  S
C742        C743   1.417       .  A
C743        C752   1.381       .  A
C743        C744   1.380       .  A
C744        C745   1.381       .  A
C744        O750   1.295       .  A
C745        H754   1.083       .  S
C745        C746   1.379       .  A
C746        C749   1.331       .  A
O747        C748   1.339       .  A
C748        C749   1.385       .  A
C749        H755   1.080       .  S
O750        C751   1.324       .  A
C751        C752   1.403       .  A
C752        H756   1.081       .  S
C757        C762   1.380       .  A
C757        C758   1.406       .  A
C757        O763   1.320       .  A
C758        H769   1.082       .  S
C758        C759   1.405       .  A
C759        C768   1.365       .  A
C759        C760   1.378       .  A
C760        C761   1.400       .  A
C760        O766   1.314       .  A
C761        H770   1.082       .  S
C761        C762   1.399       .  A
C762        C765   1.359       .  A
O763        C764   1.332       .  A
C764        C765   1.389       .  A
C765        H771   1.082       .  S
O766        C767   1.332       .  A
C767        C768   1.397       .  A
C768        H772   1.080       .  S
C773        C778   1.377       .  A
C773        C774   1.402       .  A
C773        O779   1.321       .  A
C774        H785   1.083       .  S
C774        C775   1.404       .  A
C775        C784   1.355       .  A
C775        C776   1.379       .  A
C776        C777   1.407       .  A
C776        O782   1.326       .  A
C777        H786   1.082       .  S
C777        C778   1.409       .  A
C778        C781   1.362       .  A
O779        C780   1.331       .  A
C780        C781   1.403       .  A
C781        H787   1.082       .  S
O782        C783   1.335       .  A
C783        C784   1.400       .  A
C784        H788   1.081       .  S
C789        C794   1.377       .  A
C789        C790   1.407       .  A
C789        O795   1.316       .  A
C790        H801   1.083       .  S
C790        C791   1.404       .  A
C791        C800   1.367       .  A
C791        C792   1.373       .  A
C792        C793   1.408       .  A
C792        O798   1.317       .  A
C793        H802   1.083       .  S
C793        C794   1.407       .  A
C794        C797   1.370       .  A
O795        C796   1.338       .  A
C796        C797   1.403       .  A
C797        H803   1.077       .  S
O798        C799   1.340       .  A
C799        C800   1.401       .  A
C800        H804   1.072       .  S
C805        C810   1.378       .  A
C805        C806   1.376       .  A
C805        O811   1.294       .  A
C806        H817   1.081       .  S
C806        C807   1.378       .  A
C807        C816   1.329       .  A
C807        C808   1.378       .  A
C808        C809   1.421       .  A
C808        O814   1.335       .  A
C809        H818   1.082       .  S
C809        C810   1.420       .  A
C810        C813   1.382       .  A
O811        C812   1.322       .  A
C812        C813   1.405       .  A
C813        H819   1.081       .  S
O814        C815   1.341       .  A
C815        C816   1.382       .  A
C816        H820   1.080       .  S
C821        C826   1.379       .  A
C821        C822   1.403       .  A
C821        O827   1.317       .  A
C822        H833   1.082       .  S
C822        C823   1.401       .  A
C823        C832   1.362       .  A
C823        C824   1.380       .  A
C824        C825   1.404       .  A
C824        O830   1.319       .  A
C825        H834   1.082       .  S
C825        C826   1.403       .  A
C826        C829   1.363       .  A
O827        C828   1.333       .  A
C828        C829   1.396       .  A
C829        H835   1.082       .  S
O830        C831   1.331       .  A
C831        C832   1.389       .  A
C832        H836   1.082       .  S
C837        C842   1.376       .  A
C837        C838   1.371       .  A
C837        O843   1.292       .  A
C838        H849   1.073       .  S
C838        C839   1.376       .  A
C839        C848   1.329       .  A
C839        C840   1.375       .  A
C840        C841   1.422       .  A
C840        O846   1.332       .  A
C841        H850   1.082       .  S
C841        C842   1.421       .  A
C842        C845   1.383       .  A
O843        C844   1.319       .  A
C844        C845   1.407       .  A
C845        H851   1.082       .  S
O846        C847   1.343       .  A
C847        C848   1.389       .  A
C848        H852   1.082       .  S
C853        C858   1.376       .  A
C853        C854   1.407       .  A
C853        O859   1.326       .  A
C854        H865   1.083       .  S
C854        C855   1.410       .  A
C855        C864   1.361       .  A
C855        C856   1.381       .  A
C856        C857   1.401       .  A
C856        O862   1.322       .  A
C857        H866   1.083       .  S
C857        C858   1.403       .  A
C858        C861   1.354       .  A
O859        C860   1.334       .  A
C860        C861   1.400       .  A
C861        H867   1.080       .  S
O862        C863   1.331       .  A
C863        C864   1.403       .  A
C864        H868   1.083       .  S
C869        C874   1.378       .  A
C869        C870   1.410       .  A
C869        O875   1.318       .  A
C870        H881   1.083       .  S
C870        C871   1.407       .  A
C871        C880   1.372       .  A
C871        C872   1.375       .  A
C872        C873   1.405       .  A
C872        O878   1.313       .  A
C873        H882   1.083       .  S
C873        C874   1.403       .  A
C874        C877   1.370       .  A
O875        C876   1.338       .  A
C876        C877   1.400       .  A
C877        H883   1.077       .  S
O878        C879   1.339       .  A
C879        C880   1.399       .  A
C880        H884   1.074       .  S
C885        C890   1.381       .  A
C885        C886   1.402       .  A
C885        O891   1.317       .  A
C886        H897   1.082       .  S
C886        C887   1.401       .  A
C887        C896   1.360       .  A
C887        C888   1.379       .  A
C888        C889   1.405       .  A
C888        O894   1.319       .  A
C889        H898   1.082       .  S
C889        C890   1.403       .  A
C890        C893   1.364       .  A
O891        C892   1.330       .  A
C892        C893   1.391       .  A
C893        H899   1.082       .  S
O894        C895   1.333       .  A
C895        C896   1.394       .  A
C896        H900   1.082       .  S
C901        C906   1.380       .  A
C901        C902   1.402       .  A
C901        O907   1.319       .  A
C902        H913   1.082       .  S
C902        C903   1.402       .  A
C903        C912   1.358       .  A
C903        C904   1.378       .  A
C904        C905   1.412       .  A
C904        O910   1.327       .  A
C905        H914   1.082       .  S
C905        C906   1.412       .  A
C906        C909   1.372       .  A
O907        C908   1.331       .  A
C908        C909   1.396       .  A
C909        H915   1.082       .  S
O910        C911   1.337       .  A
C911        C912   1.396       .  A
C912        H916   1.082       .  S
C917        C922   1.380       .  A
C917        C918   1.409       .  A
C917        O923   1.323       .  A
C918        H929   1.082       .  S
C918        C919   1.408       .  A
C919        C928   1.369       .  A
C919        C920   1.379       .  A
C920        C921   1.404       .  A
C920        O926   1.318       .  A
C921        H930   1.082       .  S
C921        C922   1.402       .  A
C922        C925   1.363       .  A
O923        C924   1.333       .  A
C924        C925   1.391       .  A
C925        H931   1.083       .  S
O926        C927   1.333       .  A
C927        C928   1.398       .  A
C928        H932   1.082       .  S
C933        C938   1.379       .  A
C933        C934   1.402       .  A
C933        O939   1.315       .  A
C934        H945   1.082       .  S
C934        C935   1.400       .  A
C935        C944   1.361       .  A
C935        C936   1.380       .  A
C936        C937   1.412       .  A
C936        O942   1.325       .  A
C937        H946   1.082       .  S
C937        C938   1.410       .  A
C938        C941   1.373       .  A
O939        C940   1.332       .  A
C940        C941   1.398       .  A
C941        H947   1.082       .  S
O942        C943   1.335       .  A
C943        C944   1.389       .  A
C944        H948   1.082       .  S
C949        C954   1.380       .  A
C949        C950   1.407       .  A
C949        O955   1.323       .  A
C950        H961   1.082       .  S
C950        C951   1.406       .  A
C951        C960   1.364       .  A
C951        C952   1.379       .  A
C952        C953   1.403       .  A
C952        O958   1.319       .  A
C953        H962   1.082       .  S
C953        C954   1.403       .  A
C954        C957   1.361       .  A
O955        C956   1.333       .  A
C956        C957   1.391       .  A
C957        H963   1.082       .  S
O958        C959   1.332       .  A
C959        C960   1.396       .  A
C960        H964   1.082       .  S
C965        C970   1.378       .  A
C965        C966   1.404       .  A
C965        O971   1.319       .  A
C966        H977   1.082       .  S
C966        C967   1.403       .  A
C967        C976   1.362       .  A
C967        C968   1.379       .  A
C968        C969   1.411       .  A
C968        O974   1.326       .  A
C969        H978   1.082       .  S
C969        C970   1.410       .  A
C970        C973   1.370       .  A
O971        C972   1.334       .  A
C972        C973   1.399       .  A
C973        H979   1.081       .  S
O974        C975   1.335       .  A
C975        C976   1.392       .  A
C976        H980   1.082       .  S
C981        C986   1.377       .  A
C981        C982   1.405       .  A
C981        O987   1.323       .  A
C982        H993   1.083       .  S
C982        C983   1.408       .  A
C983        C992   1.361       .  A
C983        C984   1.377       .  A
C984        C985   1.406       .  A
C984        O990   1.323       .  A
C985        H994   1.082       .  S
C985        C986   1.406       .  A
C986        C989   1.361       .  A
O987        C988   1.332       .  A
C988        C989   1.401       .  A
C989        H995   1.082       .  S
O990        C991   1.332       .  A
C991        C992   1.406       .  A
C992        H996   1.082       .  S
C997       C1002   1.380       .  A
C997        C998   1.407       .  A
C997       O1003   1.322       .  A
C998       H1009   1.082       .  S
C998        C999   1.407       .  A
C999       C1008   1.366       .  A
C999       C1000   1.379       .  A
C1000      C1001   1.404       .  A
C1000      O1006   1.319       .  A
C1001      H1010   1.082       .  S
C1001      C1002   1.402       .  A
C1002      C1005   1.362       .  A
O1003      C1004   1.332       .  A
C1004      C1005   1.390       .  A
C1005      H1011   1.082       .  S
O1006      C1007   1.334       .  A
C1007      C1008   1.398       .  A
C1008      H1012   1.082       .  S
C1013      C1018   1.377       .  A
C1013      C1014   1.373       .  A
C1013      O1019   1.291       .  A
C1014      H1025   1.083       .  S
C1014      C1015   1.374       .  A
C1015      C1024   1.322       .  A
C1015      C1016   1.374       .  A
C1016      C1017   1.425       .  A
C1016      O1022   1.337       .  A
C1017      H1026   1.082       .  S
C1017      C1018   1.425       .  A
C1018      C1021   1.385       .  A
O1019      C1020   1.322       .  A
C1020      C1021   1.410       .  A
C1021      H1027   1.081       .  S
O1022      C1023   1.345       .  A
C1023      C1024   1.388       .  A
C1024      H1028   1.082       .  S
C1029      C1034   1.375       .  A
C1029      C1030   1.405       .  A
C1029      O1035   1.317       .  A
C1030      H1041   1.083       .  S
C1030      C1031   1.405       .  A
C1031      C1040   1.366       .  A
C1031      C1032   1.377       .  A
C1032      C1033   1.408       .  A
C1032      O1038   1.318       .  A
C1033      H1042   1.082       .  S
C1033      C1034   1.406       .  A
C1034      C1037   1.369       .  A
O1035      C1036   1.336       .  A
C1036      C1037   1.401       .  A
C1037      H1043   1.079       .  S
O1038      C1039   1.338       .  A
C1039      C1040   1.403       .  A
C1040      H1044   1.076       .  S
C1045      C1050   1.381       .  A
C1045      C1046   1.399       .  A
C1045      O1051   1.317       .  A
C1046      H1057   1.082       .  S
C1046      C1047   1.399       .  A
C1047      C1056   1.353       .  A
C1047      C1048   1.378       .  A
C1048      C1049   1.409       .  A
C1048      O1054   1.326       .  A
C1049      H1058   1.082       .  S
C1049      C1050   1.410       .  A
C1050      C1053   1.368       .  A
O1051      C1052   1.328       .  A
C1052      C1053   1.394       .  A
C1053      H1059   1.082       .  S
O1054      C1055   1.336       .  A
C1055      C1056   1.397       .  A
C1056      H1060   1.082       .  S
C1061      C1066   1.380       .  A
C1061      C1062   1.378       .  A
C1061      O1067   1.295       .  A
C1062      H1073   1.080       .  S
C1062      C1063   1.375       .  A
C1063      C1072   1.327       .  A
C1063      C1064   1.377       .  A
C1064      C1065   1.419       .  A
C1064      O1070   1.332       .  A
C1065      H1074   1.082       .  S
C1065      C1066   1.419       .  A
C1066      C1069   1.381       .  A
O1067      C1068   1.323       .  A
C1068      C1069   1.404       .  A
C1069      H1075   1.081       .  S
O1070      C1071   1.340       .  A
C1071      C1072   1.388       .  A
C1072      H1076   1.083       .  S
C1077      C1082   1.378       .  A
C1077      C1078   1.410       .  A
C1077      O1083   1.316       .  A
C1078      H1089   1.083       .  S
C1078      C1079   1.406       .  A
C1079      C1088   1.374       .  A
C1079      C1080   1.376       .  A
C1080      C1081   1.407       .  A
C1080      O1086   1.316       .  A
C1081      H1090   1.083       .  S
C1081      C1082   1.405       .  A
C1082      C1085   1.372       .  A
O1083      C1084   1.339       .  A
C1084      C1085   1.400       .  A
C1085      H1091   1.078       .  S
O1086      C1087   1.338       .  A
C1087      C1088   1.401       .  A
C1088      H1092   1.079       .  S
C1093      C1098   1.379       .  A
C1093      C1094   1.401       .  A
C1093      O1099   1.323       .  A
C1094      H1105   1.083       .  S
C1094      C1095   1.404       .  A
C1095      C1104   1.351       .  A
C1095      C1096   1.377       .  A
C1096      C1097   1.409       .  A
C1096      O1102   1.330       .  A
C1097      H1106   1.082       .  S
C1097      C1098   1.413       .  A
C1098      C1101   1.362       .  A
O1099      C1100   1.331       .  A
C1100      C1101   1.407       .  A
C1101      H1107   1.083       .  S
O1102      C1103   1.336       .  A
C1103      C1104   1.403       .  A
C1104      H1108   1.082       .  S
C1109      C1114   1.381       .  A
C1109      C1110   1.399       .  A
C1109      O1115   1.315       .  A
C1110      H1121   1.082       .  S
C1110      C1111   1.398       .  A
C1111      C1120   1.355       .  A
C1111      C1112   1.380       .  A
C1112      C1113   1.406       .  A
C1112      O1118   1.320       .  A
C1113      H1122   1.082       .  S
C1113      C1114   1.406       .  A
C1114      C1117   1.366       .  A
O1115      C1116   1.328       .  A
C1116      C1117   1.393       .  A
C1117      H1123   1.082       .  S
O1118      C1119   1.334       .  A
C1119      C1120   1.391       .  A
C1120      H1124   1.083       .  S
C1125      C1130   1.379       .  A
C1125      C1126   1.408       .  A
C1125      O1131   1.324       .  A
C1126      H1137   1.082       .  S
C1126      C1127   1.408       .  A
C1127      C1136   1.367       .  A
C1127      C1128   1.381       .  A
C1128      C1129   1.397       .  A
C1128      O1134   1.315       .  A
C1129      H1138   1.083       .  S
C1129      C1130   1.397       .  A
C1130      C1133   1.352       .  A
O1131      C1132   1.335       .  A
C1132      C1133   1.395       .  A
C1133      H1139   1.083       .  S
O1134      C1135   1.327       .  A
C1135      C1136   1.393       .  A
C1136      H1140   1.082       .  S
C1141      C1146   1.381       .  A
C1141      C1142   1.394       .  A
C1141      O1147   1.313       .  A
C1142      H1153   1.083       .  S
C1142      C1143   1.394       .  A
C1143      C1152   1.346       .  A
C1143      C1144   1.380       .  A
C1144      C1145   1.410       .  A
C1144      O1150   1.328       .  A
C1145      H1154   1.082       .  S
C1145      C1146   1.412       .  A
C1146      C1149   1.370       .  A
O1147      C1148   1.326       .  A
C1148      C1149   1.395       .  A
C1149      H1155   1.082       .  S
O1150      C1151   1.335       .  A
C1151      C1152   1.390       .  A
C1152      H1156   1.083       .  S
C1157      C1162   1.379       .  A
C1157      C1158   1.406       .  A
C1157      O1163   1.321       .  A
C1158      H1169   1.082       .  S
C1158      C1159   1.405       .  A
C1159      C1168   1.365       .  A
C1159      C1160   1.381       .  A
C1160      C1161   1.399       .  A
C1160      O1166   1.316       .  A
C1161      H1170   1.082       .  S
C1161      C1162   1.399       .  A
C1162      C1165   1.355       .  A
O1163      C1164   1.334       .  A
C1164      C1165   1.395       .  A
C1165      H1171   1.082       .  S
O1166      C1167   1.328       .  A
C1167      C1168   1.392       .  A
C1168      H1172   1.082       .  S
C1173      C1178   1.378       .  A
C1173      C1174   1.401       .  A
C1173      O1179   1.315       .  A
C1174      H1185   1.082       .  S
C1174      C1175   1.400       .  A
C1175      C1184   1.358       .  A
C1175      C1176   1.380       .  A
C1176      C1177   1.408       .  A
C1176      O1182   1.323       .  A
C1177      H1186   1.082       .  S
C1177      C1178   1.408       .  A
C1178      C1181   1.366       .  A
O1179      C1180   1.333       .  A
C1180      C1181   1.399       .  A
C1181      H1187   1.080       .  S
O1182      C1183   1.333       .  A
C1183      C1184   1.389       .  A
C1184      H1188   1.082       .  S
C1189      C1194   1.380       .  A
C1189      C1190   1.408       .  A
C1189      O1195   1.322       .  A
C1190      H1201   1.082       .  S
C1190      C1191   1.407       .  A
C1191      C1200   1.366       .  A
C1191      C1192   1.378       .  A
C1192      C1193   1.403       .  A
C1192      O1198   1.317       .  A
C1193      H1202   1.082       .  S
C1193      C1194   1.401       .  A
C1194      C1197   1.362       .  A
O1195      C1196   1.333       .  A
C1196      C1197   1.389       .  A
C1197      H1203   1.082       .  S
O1198      C1199   1.334       .  A
C1199      C1200   1.399       .  A
C1200      H1204   1.080       .  S
C1205      C1210   1.379       .  A
C1205      C1206   1.406       .  A
C1205      O1211   1.323       .  A
C1206      H1217   1.082       .  S
C1206      C1207   1.407       .  A
C1207      C1216   1.364       .  A
C1207      C1208   1.380       .  A
C1208      C1209   1.407       .  A
C1208      O1214   1.325       .  A
C1209      H1218   1.082       .  S
C1209      C1210   1.408       .  A
C1210      C1213   1.363       .  A
O1211      C1212   1.334       .  A
C1212      C1213   1.399       .  A
C1213      H1219   1.082       .  S
O1214      C1215   1.333       .  A
C1215      C1216   1.392       .  A
C1216      H1220   1.082       .  S
C1221      C1226   1.378       .  A
C1221      C1222   1.404       .  A
C1221      O1227   1.326       .  A
C1222      H1233   1.082       .  S
C1222      C1223   1.407       .  A
C1223      C1232   1.357       .  A
C1223      C1224   1.377       .  A
C1224      C1225   1.406       .  A
C1224      O1230   1.325       .  A
C1225      H1234   1.082       .  S
C1225      C1226   1.409       .  A
C1226      C1229   1.360       .  A
O1227      C1228   1.334       .  A
C1228      C1229   1.403       .  A
C1229      H1235   1.082       .  S
O1230      C1231   1.333       .  A
C1231      C1232   1.405       .  A
C1232      H1236   1.081       .  S
C1237      C1242   1.380       .  A
C1237      C1238   1.405       .  A
C1237      O1243   1.319       .  A
C1238      H1249   1.082       .  S
C1238      C1239   1.404       .  A
C1239      C1248   1.363       .  A
C1239      C1240   1.378       .  A
C1240      C1241   1.402       .  A
C1240      O1246   1.315       .  A
C1241      H1250   1.082       .  S
C1241      C1242   1.400       .  A
C1242      C1245   1.359       .  A
O1243      C1244   1.331       .  A
C1244      C1245   1.389       .  A
C1245      H1251   1.082       .  S
O1246      C1247   1.333       .  A
C1247      C1248   1.396       .  A
C1248      H1252   1.080       .  S
C1253      C1258   1.377       .  A
C1253      C1254   1.411       .  A
C1253      O1259   1.332       .  A
C1254      H1265   1.082       .  S
C1254      C1255   1.415       .  A
C1255      C1264   1.365       .  A
C1255      C1256   1.378       .  A
C1256      C1257   1.407       .  A
C1256      O1262   1.327       .  A
C1257      H1266   1.082       .  S
C1257      C1258   1.409       .  A
C1258      C1261   1.360       .  A
O1259      C1260   1.338       .  A
C1260      C1261   1.402       .  A
C1261      H1267   1.083       .  S
O1262      C1263   1.336       .  A
C1263      C1264   1.409       .  A
C1264      H1268   1.083       .  S
C1269      C1274   1.377       .  A
C1269      C1270   1.423       .  A
C1269      O1275   1.335       .  A
C1270      H1281   1.082       .  S
C1270      C1271   1.423       .  A
C1271      C1280   1.385       .  A
C1271      C1272   1.378       .  A
C1272      C1273   1.372       .  A
C1272      O1278   1.291       .  A
C1273      H1282   1.078       .  S
C1273      C1274   1.375       .  A
C1274      C1277   1.327       .  A
O1275      C1276   1.342       .  A
C1276      C1277   1.384       .  A
C1277      H1283   1.081       .  S
O1278      C1279   1.320       .  A
C1279      C1280   1.406       .  A
C1280      H1284   1.081       .  S
C1285      C1290   1.378       .  A
C1285      C1286   1.406       .  A
C1285      O1291   1.321       .  A
C1286      H1297   1.082       .  S
C1286      C1287   1.405       .  A
C1287      C1296   1.364       .  A
C1287      C1288   1.379       .  A
C1288      C1289   1.410       .  A
C1288      O1294   1.326       .  A
C1289      H1298   1.082       .  S
C1289      C1290   1.410       .  A
C1290      C1293   1.369       .  A
O1291      C1292   1.335       .  A
C1292      C1293   1.400       .  A
C1293      H1299   1.081       .  S
O1294      C1295   1.335       .  A
C1295      C1296   1.392       .  A
C1296      H1300   1.083       .  S
C1301      C1306   1.376       .  A
C1301      C1302   1.424       .  A
C1301      O1307   1.334       .  A
C1302      H1313   1.082       .  S
C1302      C1303   1.424       .  A
C1303      C1312   1.387       .  A
C1303      C1304   1.377       .  A
C1304      C1305   1.366       .  A
C1304      O1310   1.286       .  A
C1305      H1314   1.077       .  S
C1305      C1306   1.369       .  A
C1306      C1309   1.323       .  A
O1307      C1308   1.342       .  A
C1308      C1309   1.384       .  A
C1309      H1315   1.084       .  S
O1310      C1311   1.317       .  A
C1311      C1312   1.408       .  A
C1312      H1316   1.082       .  S
C1317      C1322   1.377       .  A
C1317      C1318   1.408       .  A
C1317      O1323   1.315       .  A
C1318      H1329   1.083       .  S
C1318      C1319   1.404       .  A
C1319      C1328   1.373       .  A
C1319      C1320   1.376       .  A
C1320      C1321   1.406       .  A
C1320      O1326   1.315       .  A
C1321      H1330   1.083       .  S
C1321      C1322   1.404       .  A
C1322      C1325   1.370       .  A
O1323      C1324   1.339       .  A
C1324      C1325   1.400       .  A
C1325      H1331   1.078       .  S
O1326      C1327   1.336       .  A
C1327      C1328   1.400       .  A
C1328      H1332   1.079       .  S
C1333      C1338   1.379       .  A
C1333      C1334   1.403       .  A
C1333      O1339   1.325       .  A
C1334      H1345   1.083       .  S
C1334      C1335   1.407       .  A
C1335      C1344   1.357       .  A
C1335      C1336   1.379       .  A
C1336      C1337   1.408       .  A
C1336      O1342   1.329       .  A
C1337      H1346   1.083       .  S
C1337      C1338   1.411       .  A
C1338      C1341   1.361       .  A
O1339      C1340   1.332       .  A
C1340      C1341   1.405       .  A
C1341      H1347   1.083       .  S
O1342      C1343   1.336       .  A
C1343      C1344   1.403       .  A
C1344      H1348   1.081       .  S
C1349      C1354   1.379       .  A
C1349      C1350   1.412       .  A
C1349      O1355   1.328       .  A
C1350      H1361   1.082       .  S
C1350      C1351   1.413       .  A
C1351      C1360   1.371       .  A
C1351      C1352   1.381       .  A
C1352      C1353   1.395       .  A
C1352      O1358   1.314       .  A
C1353      H1362   1.082       .  S
C1353      C1354   1.395       .  A
C1354      C1357   1.349       .  A
O1355      C1356   1.336       .  A
C1356      C1357   1.389       .  A
C1357      H1363   1.083       .  S
O1358      C1359   1.326       .  A
C1359      C1360   1.397       .  A
C1360      H1364   1.082       .  S
C1365      C1370   1.378       .  A
C1365      C1366   1.401       .  A
C1365      O1371   1.314       .  A
C1366      H1377   1.082       .  S
C1366      C1367   1.399       .  A
C1367      C1376   1.360       .  A
C1367      C1368   1.379       .  A
C1368      C1369   1.410       .  A
C1368      O1374   1.322       .  A
C1369      H1378   1.082       .  S
C1369      C1370   1.409       .  A
C1370      C1373   1.370       .  A
O1371      C1372   1.333       .  A
C1372      C1373   1.399       .  A
C1373      H1379   1.081       .  S
O1374      C1375   1.334       .  A
C1375      C1376   1.388       .  A
C1376      H1380   1.082       .  S
C1381      C1386   1.376       .  A
C1381      C1382   1.423       .  A
C1381      O1387   1.334       .  A
C1382      H1393   1.082       .  S
C1382      C1383   1.423       .  A
C1383      C1392   1.384       .  A
C1383      C1384   1.380       .  A
C1384      C1385   1.367       .  A
C1384      O1390   1.286       .  A
C1385      H1394   1.078       .  S
C1385      C1386   1.363       .  A
C1386      C1389   1.315       .  A
O1387      C1388   1.343       .  A
C1388      C1389   1.381       .  A
C1389      H1395   1.083       .  S
O1390      C1391   1.317       .  A
C1391      C1392   1.406       .  A
C1392      H1396   1.082       .  S
C1397      C1402   1.378       .  A
C1397      C1398   1.402       .  A
C1397      O1403   1.317       .  A
C1398      H1409   1.082       .  S
C1398      C1399   1.401       .  A
C1399      C1408   1.361       .  A
C1399      C1400   1.380       .  A
C1400      C1401   1.410       .  A
C1400      O1406   1.325       .  A
C1401      H1410   1.082       .  S
C1401      C1402   1.409       .  A
C1402      C1405   1.370       .  A
O1403      C1404   1.333       .  A
C1404      C1405   1.399       .  A
C1405      H1411   1.081       .  S
O1406      C1407   1.334       .  A
C1407      C1408   1.390       .  A
C1408      H1412   1.082       .  S
C1413      C1418   1.377       .  A
C1413      C1414   1.408       .  A
C1413      O1419   1.328       .  A
C1414      H1425   1.083       .  S
C1414      C1415   1.411       .  A
C1415      C1424   1.360       .  A
C1415      C1416   1.376       .  A
C1416      C1417   1.409       .  A
C1416      O1422   1.330       .  A
C1417      H1426   1.082       .  S
C1417      C1418   1.412       .  A
C1418      C1421   1.363       .  A
O1419      C1420   1.337       .  A
C1420      C1421   1.408       .  A
C1421      H1427   1.082       .  S
O1422      C1423   1.336       .  A
C1423      C1424   1.409       .  A
C1424      H1428   1.083       .  S
C1429      C1434   1.377       .  A
C1429      C1430   1.408       .  A
C1429      O1435   1.326       .  A
C1430      H1441   1.082       .  S
C1430      C1431   1.409       .  A
C1431      C1440   1.363       .  A
C1431      C1432   1.378       .  A
C1432      C1433   1.407       .  A
C1432      O1438   1.326       .  A
C1433      H1442   1.082       .  S
C1433      C1434   1.410       .  A
C1434      C1437   1.362       .  A
O1435      C1436   1.336       .  A
C1436      C1437   1.406       .  A
C1437      H1443   1.082       .  S
O1438      C1439   1.335       .  A
C1439      C1440   1.402       .  A
C1440      H1444   1.082       .  S
C1445      C1450   1.380       .  A
C1445      C1446   1.406       .  A
C1445      O1451   1.322       .  A
C1446      H1457   1.082       .  S
C1446      C1447   1.406       .  A
C1447      C1456   1.363       .  A
C1447      C1448   1.379       .  A
C1448      C1449   1.404       .  A
C1448      O1454   1.321       .  A
C1449      H1458   1.082       .  S
C1449      C1450   1.404       .  A
C1450      C1453   1.363       .  A
O1451      C1452   1.332       .  A
C1452      C1453   1.391       .  A
C1453      H1459   1.083       .  S
O1454      C1455   1.333       .  A
C1455      C1456   1.397       .  A
C1456      H1460   1.081       .  S
C1461      C1466   1.374       .  A
C1461      C1462   1.424       .  A
C1461      O1467   1.336       .  A
C1462      H1473   1.082       .  S
C1462      C1463   1.424       .  A
C1463      C1472   1.383       .  A
C1463      C1464   1.379       .  A
C1464      C1465   1.366       .  A
C1464      O1470   1.288       .  A
C1465      H1474   1.081       .  S
C1465      C1466   1.367       .  A
C1466      C1469   1.314       .  A
O1467      C1468   1.346       .  A
C1468      C1469   1.386       .  A
C1469      H1475   1.082       .  S
O1470      C1471   1.316       .  A
C1471      C1472   1.408       .  A
C1472      H1476   1.082       .  S
C1477      C1482   1.374       .  A
C1477      C1478   1.408       .  A
C1477      O1483   1.315       .  A
C1478      H1489   1.083       .  S
C1478      C1479   1.405       .  A
C1479      C1488   1.373       .  A
C1479      C1480   1.377       .  A
C1480      C1481   1.414       .  A
C1480      O1486   1.319       .  A
C1481      H1490   1.082       .  S
C1481      C1482   1.408       .  A
C1482      C1485   1.378       .  A
O1483      C1484   1.340       .  A
C1484      C1485   1.402       .  A
C1485      H1491   1.079       .  S
O1486      C1487   1.341       .  A
C1487      C1488   1.404       .  A
C1488      H1492   1.077       .  S
C1493      C1498   1.378       .  A
C1493      C1494   1.407       .  A
C1493      O1499   1.325       .  A
C1494      H1505   1.083       .  S
C1494      C1495   1.408       .  A
C1495      C1504   1.361       .  A
C1495      C1496   1.375       .  A
C1496      C1497   1.408       .  A
C1496      O1502   1.326       .  A
C1497      H1506   1.082       .  S
C1497      C1498   1.410       .  A
C1498      C1501   1.364       .  A
O1499      C1500   1.336       .  A
C1500      C1501   1.405       .  A
C1501      H1507   1.083       .  S
O1502      C1503   1.334       .  A
C1503      C1504   1.406       .  A
C1504      H1508   1.082       .  S
C1509      C1514   1.378       .  A
C1509      C1510   1.405       .  A
C1509      O1515   1.317       .  A
C1510      H1521   1.082       .  S
C1510      C1511   1.403       .  A
C1511      C1520   1.363       .  A
C1511      C1512   1.380       .  A
C1512      C1513   1.410       .  A
C1512      O1518   1.323       .  A
C1513      H1522   1.082       .  S
C1513      C1514   1.408       .  A
C1514      C1517   1.371       .  A
O1515      C1516   1.335       .  A
C1516      C1517   1.398       .  A
C1517      H1523   1.081       .  S
O1518      C1519   1.333       .  A
C1519      C1520   1.391       .  A
C1520      H1524   1.083       .  S
