geometry optimzed in LAMMPS
_audit_creation_date              2020-11-30 
_audit_creation_method            'lammps2cif' 
_symmetry_space_group_name_H-M    'P1' 
_symmetry_Int_Tables_number       1 
_symmetry_cell_setting            triclinic 
loop_ 
_symmetry_equiv_pos_as_xyz 
  x,y,z 
_cell_length_a                    47.89251526 
_cell_length_b                    48.2102164684915 
_cell_length_c                    31.679399836983002 
_cell_angle_alpha                 71.79040231230404 
_cell_angle_beta                  92.99092216983925 
_cell_angle_gamma                 102.18533633893713 
loop_ 
_atom_site_label 
_atom_site_type_symbol 
_atom_site_fract_x 
_atom_site_fract_y 
_atom_site_fract_z 
_atom_site_charge 
O1          O  0.48324383  0.21297030  0.97537148    -0.74500
O2          O  0.48392198  0.29448425  0.46349185    -0.74600
O3          O  0.51524916  0.26582039  0.42949642    -0.74600
O4          O  0.45176777  0.24209085  0.00902435    -0.74700
O5          O  0.98271198  0.24017280  0.06465347    -0.74600
O6          O  0.04600443  0.26306614  0.48544566    -0.74600
O7          O  0.01468736  0.29260405  0.51904796    -0.74600
O8          O  0.01361101  0.21088522  0.03142965    -0.74600
Ni9        Ni  0.48266423  0.25396569  0.96700595     1.25400
Ni10       Ni  0.01508568  0.25154520  0.52736672     1.25400
C11         C  0.99835070  0.19841685  0.00532863     0.87600
C12         C  0.99890818  0.30683039  0.48992792     0.87600
C13         C  0.54080389  0.26767435  0.44415111     0.87600
C14         C  0.45709375  0.23775142  0.05021606     0.87800
O15         O  0.49065563  0.19989867  0.28364908    -0.74500
O16         O  0.48235373  0.27921224  0.27217948    -0.74600
O17         O  0.45480643  0.23481509  0.24019374    -0.74600
O18         O  0.51828378  0.24384784  0.31602760    -0.74700
O19         O  0.04883396  0.26282185  0.25827667    -0.74600
O20         O  0.98537651  0.25291469  0.18243921    -0.74600
O21         O  0.01263736  0.29735806  0.21428539    -0.74600
O22         O  0.02155563  0.21793729  0.22652345    -0.74600
Ni23       Ni  0.48554173  0.23883838  0.28017274     1.25400
Ni24       Ni  0.01814858  0.25834738  0.21821325     1.25400
C25         C  0.50713743  0.19578966  0.25659279     0.87600
C26         C  0.49617691  0.30139069  0.24150045     0.87600
C27         C  0.46000304  0.24196515  0.19864978     0.87600
C28         C  0.54358269  0.25544151  0.29987365     0.87800
O29         O  0.43251582  0.50074392  0.45622658    -0.81000
O30         O  0.05727621  0.49031158  0.48472597    -0.65700
O31         O  0.47790876  0.48050517  0.00548875    -1.12300
C32         C  0.50607627  0.07799615  0.01907141     1.05900
O33         O  0.06573636  0.00462892  0.04441091    -0.78900
O34         O  0.02803247  0.01749377  0.09135026    -0.66500
Ni35       Ni  0.44996881  0.46670945  0.46760597     1.34900
C36         C  0.00200406  0.00627617  0.10193587     0.84600
O37         O  0.01238144  0.44424923  0.49190959    -0.79400
O38         O  0.46554310  0.43176203  0.47762129    -0.89700
C39         C  0.07464651  0.49701661  0.01347756     0.84200
O40         O  0.46952908  0.48395202  0.41124793    -0.67900
O41         O  0.03071859  0.07179815  0.02897121    -0.87200
C42         C  0.49556155  0.49507956  0.40022827     0.85000
C43         C  0.99039173  0.42569541  0.48569065     1.06600
H44         H  0.02400890  0.03819746  0.46691478     0.38400
O45         O  0.01973257  0.02418887  0.49634870    -1.09900
O46         O  0.48244338  0.00553146  0.07304219    -0.66500
Ni47       Ni  0.48049952  0.02000352  0.00836553     1.26300
O48         O  0.01492786  0.49827296  0.42866547    -0.66700
O49         O  0.48471925  0.06009373  0.00986489    -0.79000
C50         C  0.42315675  0.00794410  0.48733351     0.84400
O51         O  0.44027232  0.01425249  0.01658904    -0.66200
Ni52       Ni  0.04724454  0.03765803  0.03542803     1.27400
Ni53       Ni  0.01702179  0.48454797  0.49332063     1.26100
H54         H  0.47380544  0.46660231  0.03497138     0.39000
O55         O  0.43199896  0.49831488  0.20760628    -0.81000
O56         O  0.05641880  0.48328952  0.23489363    -0.65700
O57         O  0.47728729  0.47660920  0.25562475    -1.12300
C58         C  0.51125803  0.07468376  0.26675954     1.05900
O59         O  0.06522973  0.99613908  0.29591818    -0.78900
O60         O  0.02968031  0.01505997  0.34107255    -0.66500
Ni61       Ni  0.44884271  0.46389722  0.21732526     1.34900
C62         C  0.00352855  0.00469652  0.35212762     0.84600
O63         O  0.01028061  0.43913510  0.23970164    -0.79400
O64         O  0.46335056  0.42823943  0.22529677    -0.89700
C65         C  0.07378574  0.48858186  0.26452537     0.84200
O66         O  0.46829365  0.48251573  0.16101337    -0.67900
O67         O  0.03571175  0.06754934  0.27431974    -0.87200
C68         C  0.49433633  0.49364520  0.15008761     0.85000
C69         C  0.98790377  0.42134514  0.23283221     1.06600
H70         H  0.02511646  0.03263912  0.21765481     0.38400
O71         O  0.02072783  0.01863653  0.24704748    -1.09900
O72         O  0.48396661  0.00212659  0.32373263    -0.66500
Ni73       Ni  0.48184386  0.01639217  0.25918528     1.26300
O74         O  0.01407611  0.49447543  0.17868519    -0.66700
O75         O  0.48843289  0.05677440  0.26137231    -0.79000
C76         C  0.42400944  0.00659358  0.23861485     0.84400
O77         O  0.44171560  0.01243008  0.26753203    -0.66200
Ni78       Ni  0.04941219  0.03135618  0.28468189     1.27400
Ni79       Ni  0.01630504  0.47912214  0.24309102     1.26100
H80         H  0.47291333  0.46267454  0.28504819     0.39000
O81         O  0.24701774  0.51693710  0.42644742    -0.74500
O82         O  0.24140445  0.45229370  0.03491714    -0.74600
O83         O  0.20422921  0.48289132  0.98298538    -0.74600
O84         O  0.28453454  0.48655768  0.97788154    -0.74700
O85         O  0.29269529  0.02009731  0.51483639    -0.74600
O86         O  0.21229232  0.01617091  0.52016428    -0.74600
O87         O  0.24980995  0.98586940  0.07168933    -0.74600
O88         O  0.25541279  0.05057251  0.46312197    -0.74600
Ni89       Ni  0.24406518  0.48345586  0.97923610     1.25400
Ni90       Ni  0.25280024  0.01940032  0.51881331     1.25400
C91         C  0.25212575  0.54402495  0.42685995     0.87600
C92         C  0.24474761  0.45879397  0.07121466     0.87600
C93         C  0.19512610  0.49894381  0.00243984     0.87600
C94         C  0.30186105  0.50420773  0.49508910     0.87800
O95         O  0.24447426  0.44988460  0.26471520    -0.74500
O96         O  0.25409296  0.51802002  0.30521058    -0.74600
O97         O  0.20862349  0.47927684  0.28887902    -0.74600
O98         O  0.28988357  0.48899625  0.28163814    -0.74700
O99         O  0.28982954  0.01904061  0.21196703    -0.74600
O100        O  0.20842602  0.00950925  0.21936329    -0.74600
O101        O  0.25398708  0.04862608  0.23571991    -0.74600
O102        O  0.24417275  0.98065034  0.19537779    -0.74600
Ni103      Ni  0.24926739  0.48299882  0.28764068     1.25400
Ni104      Ni  0.24911405  0.01550166  0.21309174     1.25400
C105        C  0.24283352  0.45446061  0.22278834     0.87600
C106        C  0.25548457  0.54418734  0.27757113     0.87600
C107        C  0.19512056  0.49288927  0.25547434     0.87600
C108        C  0.30326022  0.50545408  0.24555740     0.87800
C109        C  0.25505926  0.56718112  0.38383723    -0.05600
C110        C  0.28179371  0.07439948  0.36274589    -0.33000
C111        C  0.28329099  0.07530384  0.31840119     0.36200
C112        C  0.25780435  0.56861507  0.29625546    -0.05900
C113        C  0.23210854  0.57061588  0.31315730    -0.32900
C114        C  0.23045868  0.56912864  0.35775888     0.36200
H115        H  0.30098196  0.07342437  0.38242428     0.16500
O116        O  0.30890905  0.07509397  0.30121372    -0.60400
H117        H  0.21238655  0.56653184  0.29558848     0.16500
O118        O  0.20417683  0.56388509  0.37740674    -0.60500
H119        H  0.19624573  0.54226979  0.38321876     0.43500
H120        H  0.31638747  0.09609054  0.28337876     0.43500
C121        C  0.24221744  0.43551589  0.11413820    -0.05600
C122        C  0.21565722  0.92745806  0.13598868    -0.33000
C123        C  0.21451952  0.92434285  0.18126375     0.36200
C124        C  0.24023087  0.43028269  0.20345091    -0.05900
C125        C  0.26574883  0.42916685  0.18490885    -0.32900
C126        C  0.26706864  0.43287155  0.13943445     0.36200
H127        H  0.19629962  0.92903248  0.11684275     0.16500
O128        O  0.18902033  0.92366994  0.19974979    -0.60400
H129        H  0.28562468  0.43253144  0.20240807     0.16500
O130        O  0.29319428  0.43905046  0.11887571    -0.60500
H131        H  0.30066788  0.46070307  0.11351592     0.43500
H132        H  0.18399972  0.90361718  0.22199816     0.43500
C133        C  0.16376306  0.48963435  0.25865215    -0.05600
C134        C  0.14722272  0.99237359  0.22017580    -0.33000
C135        C  0.11769773  0.99055943  0.22197627     0.36200
C136        C  0.10420211  0.48664539  0.26257370    -0.05900
C137        C  0.12069052  0.48333722  0.30119662    -0.32900
C138        C  0.15012643  0.48469421  0.29952570     0.36200
H139        H  0.15724337  0.99608439  0.18844454     0.16500
O140        O  0.10258317  0.99426656  0.18335858    -0.60400
H141        H  0.11083921  0.48025260  0.33280882     0.16500
O142        O  0.16546867  0.48219413  0.33785651    -0.60500
H143        H  0.17217436  0.50294096  0.33867752     0.43500
H144        H  0.09489445  0.97376002  0.18211335     0.43500
C145        C  0.39384217  0.00945827  0.24011031    -0.05600
C146        C  0.37748758  0.01262939  0.20132392    -0.33000
C147        C  0.34820549  0.01217540  0.20236960     0.36200
C148        C  0.33457067  0.00831288  0.24276927    -0.05900
C149        C  0.35097684  0.50573961  0.28140588    -0.32900
C150        C  0.38038369  0.50660996  0.28024977     0.36200
H151        H  0.38730728  0.01487557  0.17005194     0.16500
O152        O  0.33297186  0.01441031  0.16396826    -0.60400
H153        H  0.34090889  0.50276323  0.31281177     0.16500
O154        O  0.39531563  0.50285094  0.31908532    -0.60500
H155        H  0.40122181  0.52311637  0.32214714     0.43500
H156        H  0.32669791  0.99363529  0.16308084     0.43500
C157        C  0.16418347  0.49745411  0.00507567    -0.05600
C158        C  0.15309479  0.00151686  0.04222979    -0.32400
C159        C  0.12396931  0.00032223  0.04611300     0.36200
C160        C  0.10521110  0.49568847  0.01185456    -0.05900
C161        C  0.11624432  0.49163014  0.47451849    -0.32900
C162        C  0.14543778  0.49227648  0.47108726     0.36200
H163        H  0.16705473  0.00528793  0.06881682     0.16500
O164        O  0.11424781  0.00389365  0.08362603    -0.60400
H165        H  0.10245598  0.48855245  0.44742528     0.16500
O166        O  0.15575377  0.48942429  0.43340578    -0.60500
H167        H  0.15167322  0.46767100  0.43772106     0.43500
H168        H  0.10839228  0.98334197  0.10418411     0.43500
C169        C  0.39239731  0.00863164  0.48891810    -0.05600
C170        C  0.37419464  0.00040196  0.45663103    -0.33000
C171        C  0.34483360  0.99899093  0.45816053     0.36200
C172        C  0.33292554  0.00589573  0.49242462    -0.05900
C173        C  0.35113081  0.51420040  0.02463823    -0.32900
C174        C  0.38056916  0.01548195  0.02326105     0.36200
H175        H  0.38263744  0.99472635  0.43004664     0.16500
O176        O  0.32804019  0.99091121  0.42577652    -0.60400
H177        H  0.34240440  0.51954984  0.05132436     0.16500
O178        O  0.39737184  0.52375220  0.05549251    -0.60500
H179        H  0.39616709  0.50518425  0.08086423     0.43500
H180        H  0.32781918  0.00985049  0.40168723     0.43500
C181        C  0.49354813  0.33213673  0.23794180    -0.05600
C182        C  0.01676764  0.35603965  0.22184505    -0.33000
C183        C  0.01538136  0.38512081  0.22028363     0.36200
C184        C  0.99021754  0.39087705  0.23403238    -0.05900
C185        C  0.46673407  0.36707786  0.24889867    -0.32900
C186        C  0.46829321  0.33796448  0.25116934     0.36200
H187        H  0.03632264  0.35210226  0.21122676     0.16500
O188        O  0.03838698  0.40788154  0.20381232    -0.60400
H189        H  0.44713449  0.37096525  0.25944715     0.16500
O190        O  0.44489037  0.31542423  0.26615370    -0.60500
H191        H  0.43423562  0.31379361  0.23904229     0.43500
H192        H  0.05153784  0.40736605  0.22916484     0.43500
C193        C  0.50866590  0.16490880  0.25952537    -0.05600
C194        C  0.48438770  0.14198925  0.27364587    -0.33000
C195        C  0.48474434  0.11260680  0.27581217     0.36200
C196        C  0.50977670  0.10559779  0.26404350    -0.05900
C197        C  0.03419848  0.12848627  0.25060588    -0.32900
C198        C  0.03370397  0.15793269  0.24786518     0.36200
H199        H  0.46487461  0.14691953  0.28261235     0.16500
O200        O  0.46061382  0.09092050  0.29005144    -0.60400
H201        H  0.05378043  0.12362280  0.24176868     0.16500
O202        O  0.05813797  0.17946104  0.23543518    -0.60500
H203        H  0.05861587  0.18563922  0.20249486     0.43500
H204        H  0.46251773  0.08296882  0.32272926     0.43500
C205        C  0.56351995  0.27185769  0.41241601    -0.05600
C206        C  0.07010563  0.24541698  0.40996790    -0.33000
C207        C  0.07030204  0.24076808  0.36857366     0.36200
C208        C  0.56547809  0.26347052  0.33021124    -0.05900
C209        C  0.56799963  0.29245800  0.33255434    -0.32900
C210        C  0.56625416  0.29666951  0.37392432     0.36200
H211        H  0.06884845  0.22634387  0.43965778     0.16500
O212        O  0.06979967  0.21262879  0.36658157    -0.60400
H213        H  0.56486700  0.31031885  0.30300364     0.16500
O214        O  0.56080177  0.32308890  0.37569645    -0.60500
H215        H  0.57926308  0.33398338  0.38357331     0.43500
H216        H  0.04997050  0.20134783  0.37480030     0.43500
C217        C  0.43438895  0.23235367  0.08248949    -0.05600
C218        C  0.43211872  0.20597225  0.11816996    -0.33000
C219        C  0.43372811  0.20741622  0.16158678     0.36200
C220        C  0.43750952  0.23546475  0.16824605    -0.05900
C221        C  0.93145723  0.25969430  0.13364351    -0.32900
C222        C  0.92934770  0.25804054  0.09027769     0.36200
H223        H  0.43521810  0.18579065  0.11245859     0.16500
O224        O  0.43863052  0.18310534  0.19541613    -0.60400
H225        H  0.93353116  0.28124327  0.13874366     0.16500
O226        O  0.92896565  0.28347942  0.05540492    -0.60500
H227        H  0.94867885  0.29559013  0.05282663     0.43500
H228        H  0.42102497  0.17598698  0.21412443     0.43500
C229        C  0.99727508  0.33759332  0.48768668    -0.05600
C230        C  0.01820988  0.35398509  0.00846879    -0.33000
C231        C  0.01643469  0.38267886  0.00822253     0.36200
C232        C  0.99342883  0.39551577  0.48688202    -0.05900
C233        C  0.47281274  0.37916050  0.46580002    -0.32900
C234        C  0.47447679  0.35055308  0.46619558     0.36200
H235        H  0.03577251  0.34441921  0.02556063     0.16500
O236        O  0.03648749  0.39736590  0.03059104    -0.60400
H237        H  0.45512660  0.38853419  0.44877328     0.16500
O238        O  0.45339086  0.33540614  0.44586128    -0.60500
H239        H  0.43778175  0.32592411  0.46836367     0.43500
H240        H  0.05284441  0.40704538  0.00949133     0.43500
C241        C  0.49862475  0.16691900  0.00972915    -0.05600
C242        C  0.01171886  0.14988110  0.54655963    -0.33000
C243        C  0.01372819  0.12067591  0.55045840     0.36200
C244        C  0.50237695  0.10785315  0.01747614    -0.05900
C245        C  0.48812424  0.12422034  0.98167752    -0.32900
C246        C  0.48648717  0.15362147  0.97727244     0.36200
H247        H  0.02095360  0.15932058  0.57224573     0.16500
O248        O  0.02709379  0.10490114  0.58658505    -0.60400
H249        H  0.47915460  0.11456241  0.95607224     0.16500
O250        O  0.47350555  0.16923545  0.94056036    -0.60500
H251        H  0.48892224  0.17882054  0.91773510     0.43500
H252        H  0.01157542  0.09331885  0.60854155     0.43500
O253        O  0.48291499  0.21289465  0.47560386    -0.74500
O254        O  0.48421437  0.29458096  0.96307201    -0.74600
O255        O  0.51547075  0.26589817  0.92900568    -0.74600
O256        O  0.45136951  0.24199027  0.50921733    -0.74700
O257        O  0.98220103  0.23994974  0.56500509    -0.74600
O258        O  0.04634824  0.26323414  0.98478850    -0.74600
O259        O  0.01511308  0.29280202  0.01844317    -0.74600
O260        O  0.01317589  0.21071664  0.53180749    -0.74600
Ni261      Ni  0.48235700  0.25388410  0.46733547     1.25400
Ni262      Ni  0.01552069  0.25173675  0.02686253     1.25400
C263        C  0.99797893  0.19830349  0.50559063     0.87600
C264        C  0.99926201  0.30697884  0.98940064     0.87600
C265        C  0.54105853  0.26782134  0.94352282     0.87600
C266        C  0.45661157  0.23757725  0.55044927     0.87800
O267        O  0.49066360  0.19990262  0.78352775    -0.74500
O268        O  0.48233127  0.27918974  0.77205369    -0.74600
O269        O  0.45469103  0.23472349  0.74024625    -0.74600
O270        O  0.51839162  0.24393398  0.81564991    -0.74700
O271        O  0.04877576  0.26288961  0.75768638    -0.74600
O272        O  0.98510649  0.25282235  0.68229817    -0.74600
O273        O  0.01245809  0.29734115  0.71396401    -0.74600
O274        O  0.02140196  0.21791710  0.72619145    -0.74600
Ni275      Ni  0.48554007  0.23883181  0.78003173     1.25400
Ni276      Ni  0.01797517  0.25833014  0.71785619     1.25400
C277        C  0.50707370  0.19578206  0.75639050     0.87600
C278        C  0.49609198  0.30137033  0.74131617     0.87600
C279        C  0.45977486  0.24184817  0.69866786     0.87600
C280        C  0.54364295  0.25556476  0.79930811     0.87800
O281        O  0.43265937  0.50070938  0.95621243    -0.81000
O282        O  0.05739464  0.49029474  0.98468492    -0.65700
O283        O  0.47778696  0.48050504  0.50548134    -1.12300
C284        C  0.50589014  0.07798233  0.51908335     1.05900
O285        O  0.06568246  0.00472503  0.54439433    -0.78900
O286        O  0.02792807  0.01755679  0.59132705    -0.66500
Ni287      Ni  0.45007445  0.46665346  0.96767347     1.34900
C288        C  0.00191479  0.00626646  0.60195770     0.84600
O289        O  0.01248748  0.44424556  0.99186032    -0.79400
O290        O  0.46562804  0.43168840  0.97776101    -0.89700
C291        C  0.07454138  0.49702717  0.51350704     0.84200
O292        O  0.46962737  0.48382868  0.91130846    -0.67900
O293        O  0.03055762  0.07183548  0.52889668    -0.87200
C294        C  0.49564813  0.49501276  0.90026263     0.85000
C295        C  0.99049932  0.42566630  0.98570717     1.06600
H296        H  0.02416796  0.03819248  0.96692047     0.38400
O297        O  0.01986705  0.02417960  0.99634505    -1.09900
O298        O  0.48233947  0.00546526  0.57309674    -0.66500
Ni299      Ni  0.48036020  0.01997447  0.50842201     1.26300
O300        O  0.01501558  0.49827093  0.92866859    -0.66700
O301        O  0.48453748  0.06004207  0.50996655    -0.79000
C302        C  0.42328163  0.00788845  0.98732261     0.84400
O303        O  0.44013494  0.01419868  0.51668347    -0.66200
Ni304      Ni  0.04712148  0.03771669  0.53538170     1.27400
Ni305      Ni  0.01713814  0.48453547  0.99330824     1.26100
H306        H  0.47367216  0.46658107  0.53494629     0.39000
O307        O  0.43199106  0.49821933  0.70781233    -0.81000
O308        O  0.05647234  0.48337263  0.73476725    -0.65700
O309        O  0.47734658  0.47658072  0.75570434    -1.12300
C310        C  0.51124499  0.07464985  0.76685896     1.05900
O311        O  0.06528881  0.99618324  0.79582156    -0.78900
O312        O  0.02974157  0.01501454  0.84108605    -0.66500
Ni313      Ni  0.44886857  0.46382578  0.71749791     1.34900
C314        C  0.00359625  0.00463745  0.85216505     0.84600
O315        O  0.01036070  0.43915156  0.73968345    -0.79400
O316        O  0.46340404  0.42818556  0.72548263    -0.89700
C317        C  0.07384476  0.48865895  0.76439653     0.84200
O318        O  0.46826345  0.48243813  0.66112581    -0.67900
O319        O  0.03570477  0.06753107  0.77440446    -0.87200
C320        C  0.49429059  0.49362111  0.65012935     0.85000
C321        C  0.98797192  0.42132102  0.73294471     1.06600
H322        H  0.02511620  0.03266402  0.71765551     0.38400
O323        O  0.02074991  0.01865033  0.74704654    -1.09900
O324        O  0.48402341  0.00207582  0.82379296    -0.66500
Ni325      Ni  0.48186842  0.01635620  0.75926803     1.26300
O326        O  0.01405684  0.49449717  0.67867535    -0.66700
O327        O  0.48842592  0.05673270  0.76147352    -0.79000
C328        C  0.42402849  0.00650954  0.73882902     0.84400
O329        O  0.44175111  0.01234889  0.76771755    -0.66200
Ni330      Ni  0.04943980  0.03136867  0.78467401     1.27400
Ni331      Ni  0.01635821  0.47914453  0.74306868     1.26100
H332        H  0.47301334  0.46264409  0.78513544     0.39000
O333        O  0.24716734  0.51671481  0.92667268    -0.74500
O334        O  0.24141807  0.45253831  0.53471398    -0.74600
O335        O  0.20414158  0.48301796  0.48281170    -0.74600
O336        O  0.28448438  0.48690333  0.47761970    -0.74700
O337        O  0.29280881  0.01973021  0.01513592    -0.74600
O338        O  0.21244511  0.01605760  0.02031095    -0.74600
O339        O  0.24977908  0.98612499  0.57146513    -0.74600
O340        O  0.25564453  0.05034231  0.96336119    -0.74600
Ni341      Ni  0.24399949  0.48368993  0.47901958     1.25400
Ni342      Ni  0.25293681  0.01915819  0.01904404     1.25400
C343        C  0.25233754  0.54380174  0.92709608     0.87600
C344        C  0.24476829  0.45904861  0.57100618     0.87600
C345        C  0.19500244  0.49902525  0.50230960     0.87600
C346        C  0.30193833  0.50382061  0.99538263     0.87800
O347        O  0.24445870  0.44972394  0.76476420    -0.74500
O348        O  0.25413283  0.51782430  0.80539655    -0.74600
O349        O  0.20862634  0.47914032  0.78893582    -0.74600
O350        O  0.28988394  0.48876346  0.78184265    -0.74700
O351        O  0.28988113  0.01885741  0.71219460    -0.74600
O352        O  0.20849716  0.00943321  0.71944941    -0.74600
O353        O  0.25409755  0.04847358  0.73592380    -0.74600
O354        O  0.24421273  0.98055147  0.69546048    -0.74600
Ni355      Ni  0.24926877  0.48281279  0.78776782     1.25400
Ni356      Ni  0.24918215  0.01537241  0.71324581     1.25400
C357        C  0.24284788  0.45434481  0.72282261     0.87600
C358        C  0.25559487  0.54401317  0.77777950     0.87600
C359        C  0.19515828  0.49279847  0.75552177     0.87600
C360        C  0.30328597  0.50524869  0.74579907     0.87800
C361        C  0.25526818  0.56696306  0.88408404    -0.05600
C362        C  0.28199086  0.07419808  0.86295321    -0.33000
C363        C  0.28345845  0.07513913  0.81857798     0.36200
C364        C  0.25795968  0.56844303  0.79647835    -0.05900
C365        C  0.23227910  0.57043935  0.81342740    -0.32900
C366        C  0.23065389  0.56891918  0.85804337     0.36200
H367        H  0.30119353  0.07323344  0.88259748     0.16500
O368        O  0.30906532  0.07501645  0.80126036    -0.60400
H369        H  0.21254553  0.56636007  0.79588321     0.16500
O370        O  0.20438060  0.56363487  0.87773930    -0.60500
H371        H  0.19645357  0.54202367  0.88348864     0.43500
H372        H  0.31767548  0.09633446  0.78678661     0.43500
C373        C  0.24228605  0.43578008  0.61394293    -0.05600
C374        C  0.21572582  0.92762252  0.63580962    -0.33000
C375        C  0.21457558  0.92431473  0.68115058     0.36200
C376        C  0.24027315  0.43021292  0.70339056    -0.05900
C377        C  0.26580674  0.42921682  0.68475639    -0.32900
C378        C  0.26714706  0.43313055  0.63921752     0.36200
H379        H  0.19636360  0.92921792  0.61668052     0.16500
O380        O  0.18905934  0.92349037  0.69972841    -0.60400
H381        H  0.28567613  0.43254301  0.70228585     0.16500
O382        O  0.29328474  0.43945881  0.61863482    -0.60500
H383        H  0.30071925  0.46109411  0.61350596     0.43500
H384        H  0.18394309  0.90327345  0.72151905     0.43500
C385        C  0.16380149  0.48958618  0.75863865    -0.05600
C386        C  0.14729862  0.99245387  0.72010247    -0.33000
C387        C  0.11778248  0.99071516  0.72184283     0.36200
C388        C  0.10425587  0.48671291  0.76245070    -0.05900
C389        C  0.12070247  0.48328211  0.80112241    -0.32900
C390        C  0.15013012  0.48458344  0.79950607     0.36200
H391        H  0.15734588  0.99622224  0.68837056     0.16500
O392        O  0.10271607  0.99459616  0.68316838    -0.60400
H393        H  0.11082441  0.48013870  0.83273831     0.16500
O394        O  0.16543209  0.48196372  0.83789016    -0.60500
H395        H  0.17192284  0.50265505  0.83905672     0.43500
H396        H  0.09489351  0.97413386  0.68183660     0.43500
C397        C  0.39387509  0.00938928  0.74036195    -0.05600
C398        C  0.37754008  0.01263693  0.70155780    -0.33000
C399        C  0.34825453  0.01212887  0.70261711     0.36200
C400        C  0.33459464  0.00813543  0.74304916    -0.05900
C401        C  0.35098556  0.50551805  0.78170909    -0.32900
C402        C  0.38040507  0.50645691  0.78053600     0.36200
H403        H  0.38737811  0.01497333  0.67025824     0.16500
O404        O  0.33304159  0.01442903  0.66418796    -0.60400
H405        H  0.34089891  0.50246467  0.81313284     0.16500
O406        O  0.39533967  0.50269426  0.81936987    -0.60500
H407        H  0.40122308  0.52295511  0.82245635     0.43500
H408        H  0.32666305  0.99365918  0.66332218     0.43500
C409        C  0.16405352  0.49744416  0.50502515    -0.05600
C410        C  0.15292568  0.00113434  0.54244817    -0.32400
C411        C  0.12379322  0.99989237  0.54637655     0.36200
C412        C  0.10508187  0.49561733  0.51188950    -0.05900
C413        C  0.11633730  0.49137288  0.97472443    -0.32900
C414        C  0.14552913  0.49199142  0.97133724     0.36200
H415        H  0.16686141  0.00465169  0.56919388     0.16500
O416        O  0.11401216  0.00304982  0.58416370    -0.60400
H417        H  0.10251649  0.48802676  0.94779713     0.16500
O418        O  0.15579899  0.48879056  0.93388454    -0.60500
H419        H  0.15176140  0.46698562  0.93864111     0.43500
H420        H  0.10800314  0.98237760  0.60426860     0.43500
C421        C  0.39248979  0.00839715  0.98904039    -0.05600
C422        C  0.37427522  0.00007651  0.95683038    -0.33000
C423        C  0.34489849  0.99856632  0.95844939     0.36200
C424        C  0.33299358  0.00546307  0.99272675    -0.05900
C425        C  0.35105733  0.51461333  0.52435971    -0.32900
C426        C  0.38048610  0.01579512  0.52307209     0.36200
H427        H  0.38272443  0.99442948  0.93022226     0.16500
O428        O  0.32809103  0.99041871  0.92612803    -0.60400
H429        H  0.34233069  0.51999355  0.55101551     0.16500
O430        O  0.39728212  0.52401723  0.55534684    -0.60500
H431        H  0.39600651  0.50544435  0.58072748     0.43500
H432        H  0.32795241  0.00931522  0.90190550     0.43500
C433        C  0.49351274  0.33211168  0.73788475    -0.05600
C434        C  0.01672193  0.35601237  0.72170474    -0.33000
C435        C  0.01538785  0.38508562  0.72026508     0.36200
C436        C  0.99027885  0.39084125  0.73419210    -0.05900
C437        C  0.46682011  0.36703628  0.74922019    -0.32900
C438        C  0.46833401  0.33792826  0.75139420     0.36200
H439        H  0.03622998  0.35207822  0.71092374     0.16500
O440        O  0.03838502  0.40784138  0.70372959    -0.60400
H441        H  0.44727085  0.37091851  0.75994822     0.16500
O442        O  0.44496059  0.31538282  0.76656213    -0.60500
H443        H  0.43417684  0.31377159  0.73954599     0.43500
H444        H  0.05157170  0.40732110  0.72904101     0.43500
C445        C  0.50861859  0.16489550  0.75940694    -0.05600
C446        C  0.48437148  0.14195966  0.77369659    -0.33000
C447        C  0.48474542  0.11256216  0.77597644     0.36200
C448        C  0.50975662  0.10556312  0.76411726    -0.05900
C449        C  0.03415293  0.12846627  0.75053478    -0.32900
C450        C  0.03364856  0.15792126  0.74772240     0.36200
H451        H  0.46487187  0.14688665  0.78272008     0.16500
O452        O  0.46065816  0.09085196  0.79042207    -0.60400
H453        H  0.05372270  0.12360515  0.74164732     0.16500
O454        O  0.05807050  0.17945807  0.73522514    -0.60500
H455        H  0.05848672  0.18566282  0.70228286     0.43500
H456        H  0.46263107  0.08299959  0.82309938     0.43500
C457        C  0.56372020  0.27211855  0.91164581    -0.05600
C458        C  0.07045795  0.24575371  0.90915836    -0.33000
C459        C  0.07063631  0.24110600  0.86776117     0.36200
C460        C  0.56561487  0.26373321  0.82944070    -0.05900
C461        C  0.56799382  0.29270595  0.83176884    -0.32900
C462        C  0.56626866  0.29691148  0.87314342     0.36200
H463        H  0.06934614  0.22670443  0.93885169     0.16500
O464        O  0.07030599  0.21300349  0.86575827    -0.60400
H465        H  0.56471125  0.31051356  0.80224172     0.16500
O466        O  0.56063331  0.32325496  0.87493768    -0.60500
H467        H  0.57892989  0.33406520  0.88345618     0.43500
H468        H  0.05052234  0.20160276  0.87404612     0.43500
C469        C  0.43384865  0.23215691  0.58265153    -0.05600
C470        C  0.43159685  0.20578253  0.61834672    -0.33000
C471        C  0.43334891  0.20725710  0.66175343     0.36200
C472        C  0.43719536  0.23531842  0.66839035    -0.05900
C473        C  0.93107344  0.25953003  0.63381999    -0.32900
C474        C  0.92882964  0.25784300  0.59046991     0.36200
H475        H  0.43464206  0.18558662  0.61262242     0.16500
O476        O  0.43830071  0.18295557  0.69555248    -0.60400
H477        H  0.93318532  0.28108917  0.63890046     0.16500
O478        O  0.92837309  0.28326396  0.55559891    -0.60500
H479        H  0.94808264  0.29539283  0.55291306     0.43500
H480        H  0.42068057  0.17576389  0.71423083     0.43500
C481        C  0.99759570  0.33772782  0.98718793    -0.05600
C482        C  0.01788259  0.35384089  0.50899006    -0.33000
C483        C  0.01618470  0.38259348  0.50856294     0.36200
C484        C  0.99358429  0.39552669  0.98677065    -0.05900
C485        C  0.47297178  0.37917244  0.96568133    -0.32900
C486        C  0.47473127  0.35063404  0.96585237     0.36200
H487        H  0.03538287  0.34422644  0.52622517     0.16500
O488        O  0.03621106  0.39726635  0.53098378    -0.60400
H489        H  0.45522795  0.38850233  0.94879408     0.16500
O490        O  0.45368182  0.33550599  0.94543779    -0.60500
H491        H  0.43807725  0.32594171  0.96793120     0.43500
H492        H  0.05261979  0.40687790  0.50996834     0.43500
C493        C  0.49828914  0.16682819  0.50989989    -0.05600
C494        C  0.01205144  0.14998022  0.04640243    -0.33000
C495        C  0.01400654  0.12074587  0.05036903     0.36200
C496        C  0.50214526  0.10781475  0.51751650    -0.05900
C497        C  0.48788682  0.12418316  0.48172459    -0.32900
C498        C  0.48620516  0.15356582  0.47737742     0.36200
H499        H  0.02131929  0.15944619  0.07204592     0.16500
O500        O  0.02736166  0.10497372  0.08651167    -0.60400
H501        H  0.47895174  0.11454379  0.45608394     0.16500
O502        O  0.47323906  0.16919682  0.44066096    -0.60500
H503        H  0.48867333  0.17882095  0.41787247     0.43500
H504        H  0.01185930  0.09355268  0.10857505     0.43500
O505        O  0.48324131  0.71296746  0.97537333    -0.74500
O506        O  0.48391664  0.79448141  0.46349206    -0.74600
O507        O  0.51524435  0.76581875  0.42949514    -0.74600
O508        O  0.45176358  0.74208627  0.00902689    -0.74700
O509        O  0.98270864  0.74017072  0.06465439    -0.74600
O510        O  0.04600113  0.76306668  0.48544217    -0.74600
O511        O  0.01468349  0.79260302  0.51904596    -0.74600
O512        O  0.01360901  0.71088467  0.03143043    -0.74600
Ni513      Ni  0.48265935  0.75396252  0.96700711     1.25400
Ni514      Ni  0.01508342  0.75154471  0.52736524     1.25400
C515        C  0.99834913  0.69841528  0.00533028     0.87600
C516        C  0.99890322  0.80682839  0.48992692     0.87600
C517        C  0.54079951  0.76767455  0.44414812     0.87600
C518        C  0.45709029  0.73774788  0.05021818     0.87800
O519        O  0.49066170  0.69990148  0.28364661    -0.74500
O520        O  0.48235516  0.77921377  0.27217628    -0.74600
O521        O  0.45480976  0.73481507  0.24019341    -0.74600
O522        O  0.51828797  0.74385230  0.31602321    -0.74700
O523        O  0.04883693  0.76282741  0.25827070    -0.74600
O524        O  0.98537829  0.75291575  0.18243690    -0.74600
O525        O  0.01263723  0.79736063  0.21428040    -0.74600
O526        O  0.02156023  0.71794117  0.22651913    -0.74600
Ni527      Ni  0.48554561  0.73884051  0.28017026     1.25400
Ni528      Ni  0.01815095  0.75835068  0.21820888     1.25400
C529        C  0.50714312  0.69579309  0.25658910     0.87600
C530        C  0.49617624  0.80139256  0.24149541     0.87600
C531        C  0.46000543  0.74196530  0.19864921     0.87600
C532        C  0.54358637  0.75544732  0.29986804     0.87800
O533        O  0.43250869  0.00074116  0.45622627    -0.81000
O534        O  0.05726997  0.99030855  0.48472663    -0.65700
O535        O  0.47790130  0.98050358  0.00548783    -1.12300
C536        C  0.50608181  0.57799628  0.01907612     1.05900
O537        O  0.06574405  0.50463113  0.04441207    -0.78900
O538        O  0.02803911  0.51749275  0.09135364    -0.66500
Ni539      Ni  0.44996240  0.96670703  0.46760545     1.34900
C540        C  0.00201056  0.50627579  0.10193892     0.84600
O541        O  0.01237501  0.94424638  0.49191149    -0.79400
O542        O  0.46553705  0.93175973  0.47762057    -0.89700
C543        C  0.07463888  0.99701372  0.01347716     0.84200
O544        O  0.46952270  0.98394967  0.41124735    -0.67900
O545        O  0.03072398  0.57179836  0.02897759    -0.87200
C546        C  0.49555540  0.99507615  0.40022794     0.85000
C547        C  0.99038554  0.92569283  0.48569115     1.06600
H548        H  0.02401479  0.53819982  0.46691733     0.38400
O549        O  0.01973860  0.52419074  0.49635080    -1.09900
O550        O  0.48244991  0.50553203  0.07304485    -0.66500
Ni551      Ni  0.48050631  0.52000450  0.00836780     1.26300
O552        O  0.01492178  0.99826914  0.42866532    -0.66700
O553        O  0.48472537  0.56009409  0.00986791    -0.79000
C554        C  0.42316310  0.50794570  0.48733428     0.84400
O555        O  0.44027878  0.51425304  0.01659013    -0.66200
Ni556      Ni  0.04725105  0.53765916  0.03543185     1.27400
Ni557      Ni  0.01701548  0.98454553  0.49332056     1.26100
H558        H  0.47379799  0.96660113  0.03497080     0.39000
O559        O  0.43199408  0.99831654  0.20760363    -0.81000
O560        O  0.05641224  0.98328725  0.23489073    -0.65700
O561        O  0.47728087  0.97660807  0.25562161    -1.12300
C562        C  0.51126313  0.57468664  0.26675701     1.05900
O563        O  0.06523711  0.49614338  0.29591934    -0.78900
O564        O  0.02968621  0.51506363  0.34107255    -0.66500
Ni565      Ni  0.44883580  0.96389762  0.21732177     1.34900
C566        C  0.00353449  0.50470010  0.35212787     0.84600
O567        O  0.01027279  0.93913461  0.23969395    -0.79400
O568        O  0.46334204  0.92823894  0.22529280    -0.89700
C569        C  0.07377882  0.98857840  0.26452372     0.84200
O570        O  0.46828726  0.98251555  0.16101018    -0.67900
O571        O  0.03571674  0.56755247  0.27431819    -0.87200
C572        C  0.49432990  0.99364553  0.15008444     0.85000
C573        C  0.98789542  0.92134499  0.23282518     1.06600
H574        H  0.02512217  0.53264055  0.21765511     0.38400
O575        O  0.02073377  0.51863861  0.24704822    -1.09900
O576        O  0.48397250  0.50212993  0.32373319    -0.66500
Ni577      Ni  0.48184970  0.51639393  0.25918583     1.26300
O578        O  0.01406970  0.99447603  0.17868191    -0.66700
O579        O  0.48843807  0.55677681  0.26137057    -0.79000
C580        C  0.42401514  0.50659383  0.23861603     0.84400
O581        O  0.44172151  0.51243138  0.26753229    -0.66200
Ni582      Ni  0.04941805  0.53135972  0.28468178     1.27400
Ni583      Ni  0.01629838  0.97912068  0.24308740     1.26100
H584        H  0.47290689  0.96267282  0.28504474     0.39000
O585        O  0.24701227  0.01693421  0.42644870    -0.74500
O586        O  0.24139672  0.95229054  0.03491911    -0.74600
O587        O  0.20422242  0.98288866  0.98298503    -0.74600
O588        O  0.28452804  0.98655434  0.97788557    -0.74700
O589        O  0.29270154  0.52010007  0.51483354    -0.74600
O590        O  0.21229861  0.51617404  0.52016450    -0.74600
O591        O  0.24981881  0.48587265  0.07168723    -0.74600
O592        O  0.25541845  0.55057541  0.46312060    -0.74600
Ni593      Ni  0.24405863  0.98345272  0.97923802     1.25400
Ni594      Ni  0.25280652  0.51940330  0.51881198     1.25400
C595        C  0.25212025  0.04402200  0.42686134     0.87600
C596        C  0.24473904  0.95879070  0.07121672     0.87600
C597        C  0.19511892  0.99894134  0.00243879     0.87600
C598        C  0.30185516  0.00420558  0.49509134     0.87800
O599        O  0.24446500  0.94987972  0.26471626    -0.74500
O600        O  0.25408721  0.01801475  0.30521172    -0.74600
O601        O  0.20861623  0.97927400  0.28887935    -0.74600
O602        O  0.28987604  0.98898986  0.28163847    -0.74700
O603        O  0.28983657  0.51904606  0.21196618    -0.74600
O604        O  0.20843262  0.50951247  0.21936344    -0.74600
O605        O  0.25399293  0.54863084  0.23571846    -0.74600
O606        O  0.24418049  0.48065510  0.19537699    -0.74600
Ni607      Ni  0.24925989  0.98299396  0.28764133     1.25400
Ni608      Ni  0.24912084  0.51550618  0.21309108     1.25400
C609        C  0.24282464  0.95445571  0.22278951     0.87600
C610        C  0.25547935  0.04418217  0.27757269     0.87600
C611        C  0.19511377  0.99288674  0.25547427     0.87600
C612        C  0.30325294  0.00544811  0.24555806     0.87800
C613        C  0.25505400  0.06717790  0.38383856    -0.05600
C614        C  0.28179870  0.57440358  0.36274351    -0.33000
C615        C  0.28329540  0.57531100  0.31839707     0.36200
C616        C  0.25779993  0.06860932  0.29625807    -0.05900
C617        C  0.23210414  0.07061131  0.31315824    -0.32900
C618        C  0.23045357  0.06912424  0.35775954     0.36200
H619        H  0.30098735  0.57342842  0.38242090     0.16500
O620        O  0.30891338  0.57510589  0.30120439    -0.60400
H621        H  0.21238238  0.06652719  0.29558889     0.16500
O622        O  0.20417115  0.06387847  0.37740685    -0.60500
H623        H  0.19624265  0.04226240  0.38322190     0.43500
H624        H  0.31643392  0.59612103  0.28349240     0.43500
C625        C  0.24220853  0.93551238  0.11414014    -0.05600
C626        C  0.21566634  0.42746192  0.13598721    -0.33000
C627        C  0.21452891  0.42434742  0.18126207     0.36200
C628        C  0.24022136  0.93027735  0.20345308    -0.05900
C629        C  0.26573924  0.92916087  0.18491164    -0.32900
C630        C  0.26705955  0.93286728  0.13943682     0.36200
H631        H  0.19630859  0.42903588  0.11684156     0.16500
O632        O  0.18902956  0.42367388  0.19974827    -0.60400
H633        H  0.28561492  0.93252457  0.20241166     0.16500
O634        O  0.29318551  0.93904740  0.11887853    -0.60500
H635        H  0.30065840  0.96070004  0.11351972     0.43500
H636        H  0.18401342  0.40362429  0.22200598     0.43500
C637        C  0.16375653  0.98963262  0.25865169    -0.05600
C638        C  0.14722988  0.49238092  0.22017494    -0.33000
C639        C  0.11770509  0.49056798  0.22197529     0.36200
C640        C  0.10419537  0.98664203  0.26257302    -0.05900
C641        C  0.12068469  0.98333971  0.30119473    -0.32900
C642        C  0.15012072  0.98469761  0.29952386     0.36200
H643        H  0.15725097  0.49609585  0.18844251     0.16500
O644        O  0.10259152  0.49428212  0.18335616    -0.60400
H645        H  0.11083402  0.98025905  0.33280581     0.16500
O646        O  0.16546384  0.98220325  0.33785310    -0.60500
H647        H  0.17217330  0.00295200  0.33866361     0.43500
H648        H  0.09489952  0.47377746  0.18210536     0.43500
C649        C  0.39384847  0.50946012  0.24011059    -0.05600
C650        C  0.37749421  0.51263239  0.20132381    -0.33000
C651        C  0.34821243  0.51218006  0.20236905     0.36200
C652        C  0.33457782  0.50831834  0.24276854    -0.05900
C653        C  0.35096987  0.00573535  0.28140627    -0.32900
C654        C  0.38037713  0.00660761  0.28024964     0.36200
H655        H  0.38731384  0.51487801  0.17005203     0.16500
O656        O  0.33297877  0.51441533  0.16396769    -0.60400
H657        H  0.34090182  0.00275882  0.31281215     0.16500
O658        O  0.39530935  0.00285034  0.31908480    -0.60500
H659        H  0.40121554  0.02311637  0.32214439     0.43500
H660        H  0.32670547  0.49364047  0.16307923     0.43500
C661        C  0.16417609  0.99745149  0.00507462    -0.05600
C662        C  0.15310165  0.50151646  0.04223281    -0.32400
C663        C  0.12397616  0.50032194  0.04611551     0.36200
C664        C  0.10520354  0.99568555  0.01185441    -0.05900
C665        C  0.11623741  0.99162355  0.47452137    -0.32900
C666        C  0.14543078  0.99226928  0.47109010     0.36200
H667        H  0.16706116  0.50528503  0.06882163     0.16500
O668        O  0.11425392  0.50389020  0.08363048    -0.60400
H669        H  0.10244843  0.98854286  0.44743027     0.16500
O670        O  0.15574578  0.98941290  0.43341101    -0.60500
H671        H  0.15166540  0.96765900  0.43773135     0.43500
H672        H  0.10839852  0.48333767  0.10418599     0.43500
C673        C  0.39240344  0.50863256  0.48891823    -0.05600
C674        C  0.37420089  0.50040147  0.45663200    -0.33000
C675        C  0.34483973  0.49899047  0.45816078     0.36200
C676        C  0.33293150  0.50589715  0.49242298    -0.05900
C677        C  0.35112411  0.01419698  0.02464246    -0.32900
C678        C  0.38057585  0.51548538  0.02325752     0.36200
H679        H  0.38264389  0.49472465  0.43004896     0.16500
O680        O  0.32804644  0.49090885  0.42577808    -0.60400
H681        H  0.34239775  0.01954526  0.05132979     0.16500
O682        O  0.39736537  0.02374697  0.05549726    -0.60500
H683        H  0.39615566  0.00517947  0.08087108     0.43500
H684        H  0.32782429  0.50984746  0.40168795     0.43500
C685        C  0.49354417  0.83213822  0.23793402    -0.05600
C686        C  0.01675880  0.85604407  0.22182202    -0.33000
C687        C  0.01537053  0.88512486  0.22025945     0.36200
C688        C  0.99020942  0.89087775  0.23402252    -0.05900
C689        C  0.46672989  0.86707612  0.24890183    -0.32900
C690        C  0.46829107  0.83796304  0.25117359     0.36200
H691        H  0.03631198  0.85210940  0.21119306     0.16500
O692        O  0.03837138  0.90788848  0.20377369    -0.60400
H693        H  0.44713224  0.87096137  0.25946055     0.16500
O694        O  0.44489226  0.81542012  0.26617190    -0.60500
H695        H  0.43423092  0.81378641  0.23906702     0.43500
H696        H  0.05152881  0.90737677  0.22911775     0.43500
C697        C  0.50867164  0.66491228  0.25952049    -0.05600
C698        C  0.48439475  0.64199192  0.27364792    -0.33000
C699        C  0.48475115  0.61260936  0.27581460     0.36200
C700        C  0.50978182  0.60560099  0.26403892    -0.05900
C701        C  0.03420204  0.62849019  0.25059318    -0.32900
C702        C  0.03370781  0.65793678  0.24785212     0.36200
H703        H  0.46488284  0.64692153  0.28262011     0.16500
O704        O  0.46062228  0.59092219  0.29006195    -0.60400
H705        H  0.05378262  0.62362706  0.24175013     0.16500
O706        O  0.05814049  0.67946592  0.23541356    -0.60500
H707        H  0.05861256  0.68564450  0.20247310     0.43500
H708        H  0.46253193  0.58296975  0.32273854     0.43500
C709        C  0.56351529  0.77186102  0.41241108    -0.05600
C710        C  0.07010572  0.74542272  0.40996155    -0.33000
C711        C  0.07030685  0.74077616  0.36856631     0.36200
C712        C  0.56548144  0.76347819  0.33020467    -0.05900
C713        C  0.56799785  0.79246448  0.33255001    -0.32900
C714        C  0.56624751  0.79667353  0.37392060     0.36200
H715        H  0.06884959  0.72634911  0.43965049     0.16500
O716        O  0.06980969  0.71263835  0.36657216    -0.60400
H717        H  0.56486399  0.81032513  0.30299982     0.16500
O718        O  0.56078913  0.82309032  0.37569383    -0.60500
H719        H  0.57924875  0.83398831  0.38356989     0.43500
H720        H  0.04998100  0.70135463  0.37478748     0.43500
C721        C  0.43438600  0.73235032  0.08249227    -0.05600
C722        C  0.43211700  0.70596961  0.11817385    -0.33000
C723        C  0.43372854  0.70741499  0.16158994     0.36200
C724        C  0.43751120  0.73546420  0.16824717    -0.05900
C725        C  0.93145781  0.75969315  0.13364434    -0.32900
C726        C  0.92934524  0.75803766  0.09027953     0.36200
H727        H  0.43521566  0.68578754  0.11246323     0.16500
O728        O  0.43863127  0.68310460  0.19541999    -0.60400
H729        H  0.93353271  0.78124266  0.13874305     0.16500
O730        O  0.92896123  0.78347556  0.05540578    -0.60500
H731        H  0.94867380  0.79558782  0.05282626     0.43500
H732        H  0.42102783  0.67598957  0.21413296     0.43500
C733        C  0.99726959  0.83759112  0.48768599    -0.05600
C734        C  0.01820185  0.85398247  0.00846927    -0.33000
C735        C  0.01642645  0.88267608  0.00822328     0.36200
C736        C  0.99342286  0.89551330  0.48688211    -0.05900
C737        C  0.47280723  0.87915825  0.46579909    -0.32900
C738        C  0.47447137  0.85055083  0.46619465     0.36200
H739        H  0.03576434  0.84441659  0.02556167     0.16500
O740        O  0.03647902  0.89736297  0.03059229    -0.60400
H741        H  0.45512131  0.88853207  0.44877175     0.16500
O742        O  0.45338547  0.83540374  0.44586051    -0.60500
H743        H  0.43777720  0.82592009  0.46836401     0.43500
H744        H  0.05283594  0.90704288  0.00949269     0.43500
C745        C  0.49862517  0.66691778  0.00973171    -0.05600
C746        C  0.01172132  0.64988172  0.54656153    -0.33000
C747        C  0.01373256  0.62067701  0.55046075     0.36200
C748        C  0.50238159  0.60785304  0.01747992    -0.05900
C749        C  0.48812846  0.62421902  0.98168064    -0.32900
C750        C  0.48648940  0.65361965  0.97727486     0.36200
H751        H  0.02095612  0.65932218  0.57224662     0.16500
O752        O  0.02710022  0.60490389  0.58658633    -0.60400
H753        H  0.47915997  0.61456053  0.95607539     0.16500
O754        O  0.47350774  0.66923262  0.94056193    -0.60500
H755        H  0.48892456  0.67881764  0.91773685     0.43500
H756        H  0.01158303  0.59332164  0.60854496     0.43500
O757        O  0.48291301  0.71289208  0.47560564    -0.74500
O758        O  0.48420735  0.79457767  0.96307273    -0.74600
O759        O  0.51546518  0.76589669  0.92900515    -0.74600
O760        O  0.45136661  0.74198653  0.50921977    -0.74700
O761        O  0.98219958  0.73994823  0.56500541    -0.74600
O762        O  0.04634359  0.76323434  0.98478656    -0.74600
O763        O  0.01510728  0.79280070  0.01844193    -0.74600
O764        O  0.01317535  0.71071650  0.53180720    -0.74600
Ni765      Ni  0.48235316  0.75388128  0.46733627     1.25400
Ni766      Ni  0.01551676  0.75173587  0.02686207     1.25400
C767        C  0.99797823  0.69830224  0.50559183     0.87600
C768        C  0.99925507  0.80697644  0.98940031     0.87600
C769        C  0.54105329  0.76782151  0.94352094     0.87600
C770        C  0.45660966  0.73757460  0.55045120     0.87800
O771        O  0.49067148  0.69990535  0.78352819    -0.74500
O772        O  0.48233360  0.77919123  0.77205058    -0.74600
O773        O  0.45469587  0.73472249  0.74024738    -0.74600
O774        O  0.51839730  0.74393939  0.81564667    -0.74700
O775        O  0.04878034  0.76289548  0.75768196    -0.74600
O776        O  0.98511003  0.75282220  0.68229764    -0.74600
O777        O  0.01245917  0.79734339  0.71395952    -0.74600
O778        O  0.02140838  0.71792048  0.72619009    -0.74600
Ni779      Ni  0.48554540  0.73883393  0.78003066     1.25400
Ni780      Ni  0.01797914  0.75833300  0.71785353     1.25400
C781        C  0.50708111  0.69578519  0.75638987     0.87600
C782        C  0.49609214  0.80137203  0.74131102     0.87600
C783        C  0.45977884  0.74184707  0.69866879     0.87600
C784        C  0.54364818  0.75557136  0.79930365     0.87800
O785        O  0.43265177  0.00070717  0.95621278    -0.81000
O786        O  0.05738701  0.99029150  0.98468470    -0.65700
O787        O  0.47778058  0.98050338  0.50548015    -1.12300
C788        C  0.50589520  0.57798274  0.51908729     1.05900
O789        O  0.06568865  0.50472668  0.54439500    -0.78900
O790        O  0.02793458  0.51755697  0.59132988    -0.66500
Ni791      Ni  0.45006659  0.96665104  0.96767383     1.34900
C792        C  0.00192134  0.50626681  0.60196090     0.84600
O793        O  0.01247931  0.94424266  0.99186143    -0.79400
O794        O  0.46561994  0.93168567  0.97776177    -0.89700
C795        C  0.07453525  0.99702491  0.51350705     0.84200
O796        O  0.46961901  0.98382541  0.91130810    -0.67900
O797        O  0.03056284  0.57183615  0.52890127    -0.87200
C798        C  0.49563985  0.99500880  0.90026193     0.85000
C799        C  0.99049115  0.92566351  0.98570796     1.06600
H800        H  0.02417506  0.53819482  0.96692363     0.38400
O801        O  0.01987405  0.52418137  0.99634782    -1.09900
O802        O  0.48234578  0.50546608  0.57309990    -0.66500
Ni803      Ni  0.48036618  0.51997557  0.50842458     1.26300
O804        O  0.01500756  0.99826697  0.92866764    -0.66700
O805        O  0.48454294  0.56004259  0.50996959    -0.79000
C806        C  0.42328864  0.50789010  0.98732229     0.84400
O807        O  0.44014075  0.51419937  0.51668549    -0.66200
Ni808      Ni  0.04712736  0.53771794  0.53538436     1.27400
Ni809      Ni  0.01713050  0.98453303  0.99330748     1.26100
H810        H  0.47366553  0.96657974  0.53494536     0.39000
O811        O  0.43198426  0.99822050  0.70780754    -0.81000
O812        O  0.05646401  0.98336990  0.73476387    -0.65700
O813        O  0.47733838  0.97657930  0.75570024    -1.12300
C814        C  0.51125171  0.57465294  0.76685737     1.05900
O815        O  0.06529766  0.49618783  0.79582347    -0.78900
O816        O  0.02974959  0.51501990  0.84108635    -0.66500
Ni817      Ni  0.44886026  0.96382587  0.71749263     1.34900
C818        C  0.00360446  0.50464171  0.85216599     0.84600
O819        O  0.01035148  0.93915059  0.73967574    -0.79400
O820        O  0.46339436  0.92818478  0.72547667    -0.89700
C821        C  0.07383623  0.98865538  0.76439385     0.84200
O822        O  0.46825617  0.98243797  0.66112134    -0.67900
O823        O  0.03571177  0.56753493  0.77440184    -0.87200
C824        C  0.49428345  0.99362094  0.65012567     0.85000
C825        C  0.98796251  0.92132050  0.73293649     1.06600
H826        H  0.02512313  0.53266593  0.71765626     0.38400
O827        O  0.02075736  0.51865279  0.74704790    -1.09900
O828        O  0.48403160  0.50207870  0.82379458    -0.66500
Ni829      Ni  0.48187583  0.51635801  0.75927012     1.26300
O830        O  0.01404939  0.99449701  0.67867195    -0.66700
O831        O  0.48843258  0.55673493  0.76147428    -0.79000
C832        C  0.42403569  0.50650938  0.73883297     0.84400
O833        O  0.44175849  0.51234968  0.76772070    -0.66200
Ni834      Ni  0.04944749  0.53137284  0.78467380     1.27400
Ni835      Ni  0.01634995  0.97914259  0.74306476     1.26100
H836        H  0.47300481  0.96264218  0.78513105     0.39000
O837        O  0.24716208  0.01671144  0.92667441    -0.74500
O838        O  0.24141271  0.95253549  0.53471462    -0.74600
O839        O  0.20413592  0.98301459  0.48281192    -0.74600
O840        O  0.28447892  0.98690129  0.47762126    -0.74700
O841        O  0.29281609  0.51973377  0.01513148    -0.74600
O842        O  0.21245249  0.51605998  0.02031185    -0.74600
O843        O  0.24978583  0.48612811  0.57146393    -0.74600
O844        O  0.25565031  0.55034534  0.96336008    -0.74600
Ni845      Ni  0.24399404  0.98368715  0.47902051     1.25400
Ni846      Ni  0.25294418  0.51916125  0.01904231     1.25400
C847        C  0.25233248  0.04379845  0.92709727     0.87600
C848        C  0.24476218  0.95904558  0.57100698     0.87600
C849        C  0.19499639  0.99902184  0.50230949     0.87600
C850        C  0.30193147  0.00381743  0.99538689     0.87800
O851        O  0.24444899  0.94971775  0.76476400    -0.74500
O852        O  0.25412425  0.01781756  0.80539660    -0.74600
O853        O  0.20861710  0.97913508  0.78893424    -0.74600
O854        O  0.28987505  0.98875673  0.78184237    -0.74700
O855        O  0.28988993  0.51886356  0.71219449    -0.74600
O856        O  0.20850577  0.50943864  0.71945132    -0.74600
O857        O  0.25410604  0.54847988  0.73592348    -0.74600
O858        O  0.24422150  0.48055771  0.69546091    -0.74600
Ni859      Ni  0.24925959  0.98280651  0.78776728     1.25400
Ni860      Ni  0.24919082  0.51537845  0.71324632     1.25400
C861        C  0.24283861  0.95433853  0.72282253     0.87600
C862        C  0.25558682  0.04400654  0.77777993     0.87600
C863        C  0.19514944  0.99279350  0.75551976     0.87600
C864        C  0.30327722  0.00524257  0.74579906     0.87800
C865        C  0.25526296  0.06695924  0.88408452    -0.05600
C866        C  0.28199642  0.57420287  0.86295362    -0.33000
C867        C  0.28346485  0.57514661  0.81857724     0.36200
C868        C  0.25795278  0.06843604  0.79647968    -0.05900
C869        C  0.23227271  0.07043316  0.81342905    -0.32900
C870        C  0.23064822  0.06891420  0.85804456     0.36200
H871        H  0.30119884  0.57323763  0.88259845     0.16500
O872        O  0.30907220  0.57502647  0.80125832    -0.60400
H873        H  0.21253881  0.06635329  0.79588588     0.16500
O874        O  0.20437502  0.06362879  0.87774132    -0.60500
H875        H  0.19645024  0.04201671  0.88349569     0.43500
H876        H  0.31770044  0.59634710  0.78684260     0.43500
C877        C  0.24227926  0.93577678  0.61394336    -0.05600
C878        C  0.21573315  0.42762637  0.63581062    -0.33000
C879        C  0.21458398  0.42432081  0.68115100     0.36200
C880        C  0.24026418  0.93020625  0.70339154    -0.05900
C881        C  0.26579814  0.92921018  0.68475853    -0.32900
C882        C  0.26713972  0.93312621  0.63921916     0.36200
H883        H  0.19637050  0.42922090  0.61668244     0.16500
O884        O  0.18906818  0.42349769  0.69972896    -0.60400
H885        H  0.28566704  0.93253530  0.70228959     0.16500
O886        O  0.29327799  0.93945542  0.61863784    -0.60500
H887        H  0.30071200  0.96109067  0.61351035     0.43500
H888        H  0.18395452  0.40328331  0.72152722     0.43500
C889        C  0.16379288  0.98958226  0.75863629    -0.05600
C890        C  0.14730807  0.49246310  0.72010347    -0.33000
C891        C  0.11779191  0.49072411  0.72184369     0.36200
C892        C  0.10424743  0.98670949  0.76244836    -0.05900
C893        C  0.12069510  0.98328441  0.80111864    -0.32900
C894        C  0.15012269  0.98458584  0.79950217     0.36200
H895        H  0.15735601  0.49623607  0.68837042     0.16500
O896        O  0.10272652  0.49461067  0.68316796    -0.60400
H897        H  0.11081801  0.98014560  0.83273342     0.16500
O898        O  0.16542592  0.98197262  0.83788423    -0.60500
H899        H  0.17191333  0.00266542  0.83904592     0.43500
H900        H  0.09490260  0.47414993  0.68183067     0.43500
C901        C  0.39388266  0.50939007  0.74036498    -0.05600
C902        C  0.37754826  0.51263873  0.70156012    -0.33000
C903        C  0.34826302  0.51213234  0.70261824     0.36200
C904        C  0.33460310  0.50814029  0.74304963    -0.05900
C905        C  0.35097772  0.00551460  0.78170785    -0.32900
C906        C  0.38039772  0.00645585  0.78053336     0.36200
H907        H  0.38738648  0.51497450  0.67026098     0.16500
O908        O  0.33305029  0.51443231  0.66418891    -0.60400
H909        H  0.34089128  0.00246085  0.81313190     0.16500
O910        O  0.39533317  0.00269544  0.81936630    -0.60500
H911        H  0.40121560  0.02295686  0.82245097     0.43500
H912        H  0.32667293  0.49366252  0.66332229     0.43500
C913        C  0.16404734  0.99744045  0.50502527    -0.05600
C914        C  0.15293108  0.50113404  0.54245061    -0.32400
C915        C  0.12379836  0.49989072  0.54637932     0.36200
C916        C  0.10507585  0.99561509  0.51188958    -0.05900
C917        C  0.11632912  0.99136671  0.97472647    -0.32900
C918        C  0.14552096  0.99198538  0.97133886     0.36200
H919        H  0.16686628  0.50464865  0.56919826     0.16500
O920        O  0.11401602  0.50304241  0.58416995    -0.60400
H921        H  0.10250775  0.98801786  0.94780112     0.16500
O922        O  0.15578991  0.98878096  0.93388824    -0.60500
H923        H  0.15175504  0.96697535  0.93865116     0.43500
H924        H  0.10800769  0.48236869  0.60427038     0.43500
C925        C  0.39249669  0.50839901  0.98903870    -0.05600
C926        C  0.37428218  0.50007659  0.95682984    -0.33000
C927        C  0.34490532  0.49856621  0.95844831     0.36200
C928        C  0.33300036  0.50546529  0.99272335    -0.05900
C929        C  0.35105141  0.01461098  0.52436197    -0.32900
C930        C  0.38049196  0.51579697  0.52307092     0.36200
H931        H  0.38273150  0.49442797  0.93022342     0.16500
O932        O  0.32809774  0.49041545  0.92612940    -0.60400
H933        H  0.34232482  0.01999011  0.55101888     0.16500
O934        O  0.39727654  0.02401494  0.55534810    -0.60500
H935        H  0.39599990  0.00544219  0.58072921     0.43500
H936        H  0.32796025  0.50931037  0.90190299     0.43500
C937        C  0.49350916  0.83211299  0.73787630    -0.05600
C938        C  0.01671381  0.85601657  0.72168318    -0.33000
C939        C  0.01537727  0.88508940  0.72024215     0.36200
C940        C  0.99027018  0.89084165  0.73418097    -0.05900
C941        C  0.46681512  0.86703414  0.74922034    -0.32900
C942        C  0.46833166  0.83792646  0.75139592     0.36200
H943        H  0.03622062  0.85208515  0.71089349     0.16500
O944        O  0.03837013  0.90784797  0.70369475    -0.60400
H945        H  0.44726733  0.87091406  0.75995721     0.16500
O946        O  0.44496227  0.81537819  0.76657661    -0.60500
H947        H  0.43417265  0.81376389  0.73956652     0.43500
H948        H  0.05156199  0.90733136  0.72899939     0.43500
C949        C  0.50862597  0.66489868  0.75940547    -0.05600
C950        C  0.48437988  0.64196220  0.77370045    -0.33000
C951        C  0.48475347  0.61256473  0.77597976     0.36200
C952        C  0.50976321  0.60556634  0.76411434    -0.05900
C953        C  0.03415841  0.62847011  0.75052568    -0.32900
C954        C  0.03365445  0.65792506  0.74771414     0.36200
H955        H  0.46488130  0.64688862  0.78272884     0.16500
O956        O  0.46066749  0.59085384  0.79043159    -0.60400
H957        H  0.05372705  0.62360939  0.74163318     0.16500
O958        O  0.05807547  0.67946242  0.73521090    -0.60500
H959        H  0.05848802  0.68566693  0.70226857     0.43500
H960        H  0.46264585  0.58299931  0.82310754     0.43500
C961        C  0.56371487  0.77212180  0.91164225    -0.05600
C962        C  0.07045764  0.74575931  0.90915401    -0.33000
C963        C  0.07064218  0.74111444  0.86775564     0.36200
C964        C  0.56561992  0.76374155  0.82943533    -0.05900
C965        C  0.56799370  0.79271300  0.83176602    -0.32900
C966        C  0.56626195  0.79691561  0.87314122     0.36200
H967        H  0.06934628  0.72670934  0.93884625     0.16500
O968        O  0.07031751  0.71301359  0.86575042    -0.60400
H969        H  0.56471069  0.81052062  0.80223921     0.16500
O970        O  0.56061953  0.82325614  0.87493614    -0.60500
H971        H  0.57891264  0.83406813  0.88346191     0.43500
H972        H  0.05053410  0.70161021  0.87403283     0.43500
C973        C  0.43384746  0.73215440  0.58265448    -0.05600
C974        C  0.43159663  0.70578021  0.61834982    -0.33000
C975        C  0.43335150  0.70725531  0.66175624     0.36200
C976        C  0.43719871  0.73531685  0.66839266    -0.05900
C977        C  0.93107571  0.75952822  0.63382315    -0.32900
C978        C  0.92882967  0.75784079  0.59047337     0.36200
H979        H  0.43464093  0.68558411  0.61262509     0.16500
O980        O  0.43830497  0.68295409  0.69555443    -0.60400
H981        H  0.93318830  0.78108749  0.63890350     0.16500
O982        O  0.92837220  0.78326159  0.55560248    -0.60500
H983        H  0.94808133  0.79539140  0.55291672     0.43500
H984        H  0.42068980  0.67576837  0.71424393     0.43500
C985        C  0.99758815  0.83772532  0.98718754    -0.05600
C986        C  0.01787657  0.85383841  0.50899052    -0.33000
C987        C  0.01617843  0.88259082  0.50856385     0.36200
C988        C  0.99357624  0.89552399  0.98677094    -0.05900
C989        C  0.47296434  0.87917001  0.96568048    -0.32900
C990        C  0.47472401  0.85063162  0.96585138     0.36200
H991        H  0.03537664  0.84422389  0.52622629     0.16500
O992        O  0.03620431  0.89726335  0.53098576    -0.60400
H993        H  0.45522078  0.88850009  0.94879256     0.16500
O994        O  0.45367490  0.83550363  0.94543624    -0.60500
H995        H  0.43807039  0.82593872  0.96792967     0.43500
H996        H  0.05261321  0.90687541  0.50997076     0.43500
C997        C  0.49828986  0.66682719  0.50990226    -0.05600
C998        C  0.01205232  0.64998022  0.04640566    -0.33000
C999        C  0.01400979  0.62074647  0.05037261     0.36200
C1000       C  0.50214938  0.60781475  0.51752008    -0.05900
C1001       C  0.48788905  0.62418145  0.48172908    -0.32900
C1002       C  0.48620592  0.65356373  0.47738108     0.36200
H1003       H  0.02131895  0.65944678  0.07204916     0.16500
O1004       O  0.02736599  0.60497570  0.08651518    -0.60400
H1005       H  0.47895377  0.61454115  0.45608947     0.16500
O1006       O  0.47323882  0.66919346  0.44066473    -0.60500
H1007       H  0.48867248  0.67881703  0.41787512     0.43500
H1008       H  0.01186415  0.59355426  0.10857928     0.43500
O1009       O  0.98324366  0.21297009  0.97537163    -0.74500
O1010       O  0.98392194  0.29448404  0.46349190    -0.74600
O1011       O  0.01524914  0.26582014  0.42949657    -0.74600
O1012       O  0.95176765  0.24209079  0.00902433    -0.74700
O1013       O  0.48271215  0.24017298  0.06465341    -0.74600
O1014       O  0.54600448  0.26306648  0.48544545    -0.74600
O1015       O  0.51468734  0.29260421  0.51904801    -0.74600
O1016       O  0.51361117  0.21088544  0.03142952    -0.74600
Ni1017     Ni  0.98266416  0.25396552  0.96700601     1.25400
Ni1018     Ni  0.51508575  0.25154540  0.52736659     1.25400
C1019       C  0.49835089  0.19841708  0.00532846     0.87600
C1020       C  0.49890818  0.30683057  0.48992794     0.87600
C1021       C  0.04080386  0.26767401  0.44415132     0.87600
C1022       C  0.95709360  0.23775135  0.05021605     0.87800
O1023       O  0.99065544  0.19989847  0.28364904    -0.74500
O1024       O  0.98235359  0.27921203  0.27217966    -0.74600
O1025       O  0.95480629  0.23481496  0.24019375    -0.74600
O1026       O  0.01828358  0.24384753  0.31602776    -0.74700
O1027       O  0.54883413  0.26282212  0.25827645    -0.74600
O1028       O  0.48537663  0.25291468  0.18243918    -0.74600
O1029       O  0.51263744  0.29735820  0.21428513    -0.74600
O1030       O  0.52155583  0.21793742  0.22652350    -0.74600
Ni1031     Ni  0.98554155  0.23883817  0.28017281     1.25400
Ni1032     Ni  0.51814873  0.25834751  0.21821312     1.25400
C1033       C  0.00713726  0.19578951  0.25659273     0.87600
C1034       C  0.99617683  0.30139051  0.24150073     0.87600
C1035       C  0.96000292  0.24196513  0.19864978     0.87600
C1036       C  0.04358251  0.25544115  0.29987387     0.87800
O1037       O  0.93251574  0.50074367  0.45622684    -0.81000
O1038       O  0.55727624  0.49031181  0.48472577    -0.65700
O1039       O  0.97790871  0.48050497  0.00548885    -1.12300
C1040       C  0.00607620  0.07799592  0.01907166     1.05900
O1041       O  0.56573652  0.00462917  0.04441077    -0.78900
O1042       O  0.52803255  0.01749401  0.09135008    -0.66500
Ni1043     Ni  0.94996878  0.46670924  0.46760611     1.34900
C1044       C  0.50200415  0.00627640  0.10193569     0.84600
O1045       O  0.51238146  0.44424945  0.49190943    -0.79400
O1046       O  0.96554311  0.43176185  0.47762132    -0.89700
C1047       C  0.57464657  0.49701674  0.01347738     0.84200
O1048       O  0.96952903  0.48395192  0.41124805    -0.67900
O1049       O  0.53071866  0.07179838  0.02897095    -0.87200
C1050       C  0.99556151  0.49507941  0.40022839     0.85000
C1051       C  0.49039173  0.42569561  0.48569057     1.06600
H1052       H  0.52400898  0.03819765  0.46691465     0.38400
O1053       O  0.51973265  0.02418911  0.49634845    -1.09900
O1054       O  0.98244330  0.00553120  0.07304235    -0.66500
Ni1055     Ni  0.98049947  0.02000331  0.00836568     1.26300
O1056       O  0.51492789  0.49827318  0.42866533    -0.66700
O1057       O  0.98471918  0.06009350  0.00986510    -0.79000
C1058       C  0.92315667  0.00794381  0.48733372     0.84400
O1059       O  0.94027226  0.01425227  0.01658915    -0.66200
Ni1060     Ni  0.54724463  0.03765826  0.03542784     1.27400
Ni1061     Ni  0.51702182  0.48454819  0.49332046     1.26100
H1062       H  0.97380538  0.46660205  0.03497160     0.39000
O1063       O  0.93199891  0.49831471  0.20760646    -0.81000
O1064       O  0.55641881  0.48328959  0.23489356    -0.65700
O1065       O  0.97728729  0.47660909  0.25562489    -1.12300
C1066       C  0.01125812  0.07468367  0.26675957     1.05900
O1067       O  0.56522974  0.99613923  0.29591808    -0.78900
O1068       O  0.52968030  0.01506002  0.34107243    -0.66500
Ni1069     Ni  0.94884267  0.46389704  0.21732552     1.34900
C1070       C  0.50352854  0.00469660  0.35212748     0.84600
O1071       O  0.51028058  0.43913523  0.23970136    -0.79400
O1072       O  0.96335059  0.42823926  0.22529709    -0.89700
C1073       C  0.57378574  0.48858192  0.26452532     0.84200
O1074       O  0.96829356  0.48251551  0.16101359    -0.67900
O1075       O  0.53571165  0.06754941  0.27431975    -0.87200
C1076       C  0.99433623  0.49364497  0.15008780     0.85000
C1077       C  0.48790373  0.42134529  0.23283187     1.06600
H1078       H  0.52511646  0.03263929  0.21765468     0.38400
O1079       O  0.52072783  0.01863665  0.24704738    -1.09900
O1080       O  0.98396663  0.00212651  0.32373276    -0.66500
Ni1081     Ni  0.98184388  0.01639207  0.25918542     1.26300
O1082       O  0.51407619  0.49447564  0.17868504    -0.66700
O1083       O  0.98843296  0.05677430  0.26137243    -0.79000
C1084       C  0.92400941  0.00659348  0.23861504     0.84400
O1085       O  0.94171561  0.01243003  0.26753215    -0.66200
Ni1086     Ni  0.54941216  0.03135629  0.28468181     1.27400
Ni1087     Ni  0.51630504  0.47912224  0.24309088     1.26100
H1088       H  0.97291333  0.46267443  0.28504843     0.39000
O1089       O  0.74701784  0.51693699  0.42644774    -0.74500
O1090       O  0.74140439  0.45229388  0.03491703    -0.74600
O1091       O  0.70422926  0.48289156  0.98298515    -0.74600
O1092       O  0.78453456  0.48655780  0.97788156    -0.74700
O1093       O  0.79269528  0.02009704  0.51483687    -0.74600
O1094       O  0.71229229  0.01617055  0.52016476    -0.74600
O1095       O  0.74981003  0.98586962  0.07168917    -0.74600
O1096       O  0.75541275  0.05057223  0.46312243    -0.74600
Ni1097     Ni  0.74406521  0.48345605  0.97923600     1.25400
Ni1098     Ni  0.75280022  0.01940002  0.51881378     1.25400
C1099       C  0.75212585  0.54402483  0.42686032     0.87600
C1100       C  0.74474756  0.45879413  0.07121456     0.87600
C1101       C  0.69512613  0.49894400  0.00243969     0.87600
C1102       C  0.80186104  0.50420757  0.49508953     0.87800
O1103       O  0.74447424  0.44988462  0.26471520    -0.74500
O1104       O  0.75409294  0.51801996  0.30521082    -0.74600
O1105       O  0.70862348  0.47927684  0.28887910    -0.74600
O1106       O  0.78988356  0.48899621  0.28163832    -0.74700
O1107       O  0.78982958  0.01904068  0.21196722    -0.74600
O1108       O  0.70842606  0.00950943  0.21936334    -0.74600
O1109       O  0.75398718  0.04862616  0.23572015    -0.74600
O1110       O  0.74417277  0.98065053  0.19537777    -0.74600
Ni1111     Ni  0.74926737  0.48299880  0.28764080     1.25400
Ni1112     Ni  0.74911410  0.01550179  0.21309186     1.25400
C1113       C  0.74283343  0.45446068  0.22278833     0.87600
C1114       C  0.75548462  0.54418731  0.27757143     0.87600
C1115       C  0.69512059  0.49288940  0.25547448     0.87600
C1116       C  0.80326021  0.50545404  0.24555759     0.87800
C1117       C  0.75505937  0.56718101  0.38383762    -0.05600
C1118       C  0.78179374  0.07439933  0.36274631    -0.33000
C1119       C  0.78329102  0.07530377  0.31840157     0.36200
C1120       C  0.75780439  0.56861500  0.29625584    -0.05900
C1121       C  0.73210860  0.57061578  0.31315774    -0.32900
C1122       C  0.73045878  0.56912855  0.35775931     0.36200
H1123       H  0.80098199  0.07342420  0.38242469     0.16500
O1124       O  0.80890908  0.07509386  0.30121414    -0.60400
H1125       H  0.71238659  0.56653175  0.29558893     0.16500
O1126       O  0.70417694  0.56388501  0.37740723    -0.60500
H1127       H  0.69624580  0.54226973  0.38321913     0.43500
H1128       H  0.81638677  0.09609011  0.28337711     0.43500
C1129       C  0.74221736  0.43551602  0.11413808    -0.05600
C1130       C  0.71565727  0.92745827  0.13598839    -0.33000
C1131       C  0.71451951  0.92434311  0.18126343     0.36200
C1132       C  0.74023073  0.43028280  0.20345078    -0.05900
C1133       C  0.76574870  0.42916691  0.18490878    -0.32900
C1134       C  0.76706854  0.43287166  0.13943437     0.36200
H1135       H  0.69629970  0.92903269  0.11684241     0.16500
O1136       O  0.68902031  0.92367029  0.19974933    -0.60400
H1137       H  0.78562454  0.43253147  0.20240805     0.16500
O1138       O  0.79319421  0.43905075  0.11887563    -0.60500
H1139       H  0.80066770  0.46070336  0.11351599     0.43500
H1140       H  0.68399957  0.90361749  0.22199759     0.43500
C1141       C  0.66376308  0.48963450  0.25865220    -0.05600
C1142       C  0.64722275  0.99237389  0.22017566    -0.33000
C1143       C  0.61769778  0.99055978  0.22197611     0.36200
C1144       C  0.60420211  0.48664543  0.26257369    -0.05900
C1145       C  0.62069044  0.48333702  0.30119670    -0.32900
C1146       C  0.65012637  0.48469408  0.29952581     0.36200
H1147       H  0.65724344  0.99608482  0.18844438     0.16500
O1148       O  0.60258324  0.99426707  0.18335838    -0.60400
H1149       H  0.61083905  0.48025219  0.33280895     0.16500
O1150       O  0.66546857  0.48219388  0.33785668    -0.60500
H1151       H  0.67217418  0.50294067  0.33867791     0.43500
H1152       H  0.59489444  0.97376058  0.18211304     0.43500
C1153       C  0.89384217  0.00945825  0.24011047    -0.05600
C1154       C  0.87748752  0.01262918  0.20132415    -0.33000
C1155       C  0.84820543  0.01217521  0.20236984     0.36200
C1156       C  0.83457067  0.00831287  0.24276946    -0.05900
C1157       C  0.85097687  0.50573973  0.28140601    -0.32900
C1158       C  0.88038371  0.50661008  0.28024985     0.36200
H1159       H  0.88730716  0.01487517  0.17005223     0.16500
O1160       O  0.83297175  0.01440993  0.16396858    -0.60400
H1161       H  0.84090895  0.50276350  0.31281187     0.16500
O1162       O  0.89531570  0.50285125  0.31908534    -0.60500
H1163       H  0.90122185  0.52311675  0.32214693     0.43500
H1164       H  0.82669770  0.99363483  0.16308151     0.43500
C1165       C  0.66418350  0.49745420  0.00507556    -0.05600
C1166       C  0.65309469  0.00151611  0.04223031    -0.32400
C1167       C  0.62396916  0.00032129  0.04611358     0.36200
C1168       C  0.60521111  0.49568841  0.01185446    -0.05900
C1169       C  0.61624429  0.49162995  0.47451857    -0.32900
C1170       C  0.64543775  0.49227621  0.47108744     0.36200
H1171       H  0.66705452  0.00528655  0.06881777     0.16500
O1172       O  0.61424746  0.00389162  0.08362733    -0.60400
H1173       H  0.60245593  0.48855213  0.44742543     0.16500
O1174       O  0.65575373  0.48942380  0.43340611    -0.60500
H1175       H  0.65167298  0.46767049  0.43772147     0.43500
H1176       H  0.60839153  0.98333961  0.10418423     0.43500
C1177       C  0.89239726  0.00863139  0.48891839    -0.05600
C1178       C  0.87419457  0.00040193  0.45663120    -0.33000
C1179       C  0.84483353  0.99899085  0.45816081     0.36200
C1180       C  0.83292550  0.00589543  0.49242513    -0.05900
C1181       C  0.85113080  0.51420033  0.02463840    -0.32900
C1182       C  0.88056916  0.01548188  0.02326110     0.36200
H1183       H  0.88263737  0.99472652  0.43004660     0.16500
O1184       O  0.82804011  0.99091134  0.42577665    -0.60400
H1185       H  0.84240439  0.51954966  0.05132465     0.16500
O1186       O  0.89737181  0.52375178  0.05549289    -0.60500
H1187       H  0.89616696  0.50518371  0.08086443     0.43500
H1188       H  0.82781908  0.00985071  0.40168755     0.43500
C1189       C  0.99354812  0.33213654  0.23794222    -0.05600
C1190       C  0.51676762  0.35603986  0.22184461    -0.33000
C1191       C  0.51538130  0.38512102  0.22028314     0.36200
C1192       C  0.49021748  0.39087722  0.23403194    -0.05900
C1193       C  0.96673412  0.36707770  0.24889913    -0.32900
C1194       C  0.96829322  0.33796431  0.25116981     0.36200
H1195       H  0.53632264  0.35210249  0.21122636     0.16500
O1196       O  0.53838689  0.40788178  0.20381179    -0.60400
H1197       H  0.94713454  0.37096511  0.25944758     0.16500
O1198       O  0.94489039  0.31542408  0.26615422    -0.60500
H1199       H  0.93423561  0.31379346  0.23904282     0.43500
H1200       H  0.55153780  0.40736628  0.22916422     0.43500
C1201       C  0.00866579  0.16490868  0.25952530    -0.05600
C1202       C  0.98438762  0.14198910  0.27364581    -0.33000
C1203       C  0.98474435  0.11260666  0.27581215     0.36200
C1204       C  0.00977676  0.10559771  0.26404351    -0.05900
C1205       C  0.53419844  0.12848632  0.25060590    -0.32900
C1206       C  0.53370403  0.15793275  0.24786524     0.36200
H1207       H  0.96487449  0.14691932  0.28261228     0.16500
O1208       O  0.96061388  0.09092032  0.29005142    -0.60400
H1209       H  0.55378036  0.12362281  0.24176866     0.16500
O1210       O  0.55813805  0.17946105  0.23543519    -0.60500
H1211       H  0.55861598  0.18563913  0.20249488     0.43500
H1212       H  0.96251772  0.08296876  0.32272926     0.43500
C1213       C  0.06351992  0.27185720  0.41241631    -0.05600
C1214       C  0.57010588  0.24541756  0.40996760    -0.33000
C1215       C  0.57030237  0.24076870  0.36857335     0.36200
C1216       C  0.06547793  0.26346997  0.33021155    -0.05900
C1217       C  0.06799974  0.29245749  0.33255467    -0.32900
C1218       C  0.06625434  0.29666902  0.37392463     0.36200
H1219       H  0.56884883  0.22634447  0.43965748     0.16500
O1220       O  0.56980022  0.21262946  0.36658123    -0.60400
H1221       H  0.06486729  0.31031841  0.30300396     0.16500
O1222       O  0.06080227  0.32308853  0.37569674    -0.60500
H1223       H  0.07926356  0.33398264  0.38357430     0.43500
H1224       H  0.54997109  0.20134837  0.37479996     0.43500
C1225       C  0.93438880  0.23235370  0.08248944    -0.05600
C1226       C  0.93211851  0.20597229  0.11816993    -0.33000
C1227       C  0.93372788  0.20741627  0.16158674     0.36200
C1228       C  0.93750940  0.23546480  0.16824600    -0.05900
C1229       C  0.43145725  0.25969422  0.13364359    -0.32900
C1230       C  0.42934775  0.25804046  0.09027777     0.36200
H1231       H  0.93521783  0.18579066  0.11245858     0.16500
O1232       O  0.93863018  0.18310535  0.19541613    -0.60400
H1233       H  0.43353107  0.28124318  0.13874376     0.16500
O1234       O  0.42896561  0.28347932  0.05540500    -0.60500
H1235       H  0.44867880  0.29559009  0.05282672     0.43500
H1236       H  0.92102458  0.17598705  0.21412434     0.43500
C1237       C  0.49727507  0.33759348  0.48768674    -0.05600
C1238       C  0.51820994  0.35398531  0.00846868    -0.33000
C1239       C  0.51643471  0.38267907  0.00822243     0.36200
C1240       C  0.49342882  0.39551594  0.48688201    -0.05900
C1241       C  0.97281288  0.37916045  0.46579971    -0.32900
C1242       C  0.97447692  0.35055303  0.46619524     0.36200
H1243       H  0.53577261  0.34441946  0.02556043     0.16500
O1244       O  0.53648755  0.39736616  0.03059083    -0.60400
H1245       H  0.95512683  0.38853422  0.44877277     0.16500
O1246       O  0.95339110  0.33540619  0.44586062    -0.60500
H1247       H  0.93778196  0.32592402  0.46836292     0.43500
H1248       H  0.55284446  0.40704557  0.00949110     0.43500
C1249       C  0.99862454  0.16691875  0.00972937    -0.05600
C1250       C  0.51171917  0.14988145  0.54655923    -0.33000
C1251       C  0.51372851  0.12067626  0.55045799     0.36200
C1252       C  0.00237685  0.10785292  0.01747639    -0.05900
C1253       C  0.98812418  0.12422010  0.98167773    -0.32900
C1254       C  0.98648704  0.15362123  0.97727263     0.36200
H1255       H  0.52095398  0.15932097  0.57224527     0.16500
O1256       O  0.52709423  0.10490154  0.58658455    -0.60400
H1257       H  0.97915460  0.11456217  0.95607244     0.16500
O1258       O  0.97350547  0.16923520  0.94056047    -0.60500
H1259       H  0.98892221  0.17882031  0.91773529     0.43500
H1260       H  0.51157591  0.09331913  0.60854107     0.43500
O1261       O  0.98291493  0.21289443  0.47560403    -0.74500
O1262       O  0.98421436  0.29458080  0.96307199    -0.74600
O1263       O  0.01547073  0.26589791  0.92900584    -0.74600
O1264       O  0.95136946  0.24199009  0.50921741    -0.74700
O1265       O  0.48220110  0.23994978  0.56500501    -0.74600
O1266       O  0.54634832  0.26323438  0.98478828    -0.74600
O1267       O  0.51511319  0.29280224  0.01844304    -0.74600
O1268       O  0.51317606  0.21071690  0.53180719    -0.74600
Ni1269     Ni  0.98235696  0.25388388  0.46733558     1.25400
Ni1270     Ni  0.51552083  0.25173697  0.02686240     1.25400
C1271       C  0.49797907  0.19830375  0.50559037     0.87600
C1272       C  0.49926206  0.30697903  0.98940059     0.87600
C1273       C  0.04105849  0.26782107  0.94352304     0.87600
C1274       C  0.95661151  0.23757720  0.55044932     0.87800
O1275       O  0.99066342  0.19990246  0.78352776    -0.74500
O1276       O  0.98233118  0.27918959  0.77205390    -0.74600
O1277       O  0.95469093  0.23472344  0.74024629    -0.74600
O1278       O  0.01839146  0.24393372  0.81565010    -0.74700
O1279       O  0.54877585  0.26288984  0.75768611    -0.74600
O1280       O  0.48510654  0.25282231  0.68229806    -0.74600
O1281       O  0.51245810  0.29734127  0.71396368    -0.74600
O1282       O  0.52140210  0.21791721  0.72619138    -0.74600
Ni1283     Ni  0.98553993  0.23883165  0.78003185     1.25400
Ni1284     Ni  0.51797524  0.25833025  0.71785599     1.25400
C1285       C  0.00707354  0.19578193  0.75639050     0.87600
C1286       C  0.99609195  0.30137020  0.74131647     0.87600
C1287       C  0.95977480  0.24184821  0.69866789     0.87600
C1288       C  0.04364282  0.25556446  0.79930837     0.87800
O1289       O  0.93265928  0.50070915  0.95621254    -0.81000
O1290       O  0.55739468  0.49029492  0.98468472    -0.65700
O1291       O  0.97778692  0.48050480  0.50548151    -1.12300
C1292       C  0.00589000  0.07798207  0.51908359     1.05900
O1293       O  0.56568244  0.00472513  0.54439425    -0.78900
O1294       O  0.52792811  0.01755704  0.59132690    -0.66500
Ni1295     Ni  0.95007442  0.46665325  0.96767355     1.34900
C1296       C  0.50191483  0.00626671  0.60195754     0.84600
O1297       O  0.51248748  0.44424573  0.99186024    -0.79400
O1298       O  0.96562805  0.43168821  0.97776105    -0.89700
C1299       C  0.57454140  0.49702736  0.51350685     0.84200
O1300       O  0.96962737  0.48382853  0.91130857    -0.67900
O1301       O  0.53055775  0.07183570  0.52889646    -0.87200
C1302       C  0.99564812  0.49501265  0.90026275     0.85000
C1303       C  0.49049930  0.42566647  0.98570714     1.06600
H1304       H  0.52416802  0.03819268  0.96692023     0.38400
O1305       O  0.51986710  0.02417977  0.99634496    -1.09900
O1306       O  0.98233942  0.00546500  0.57309693    -0.66500
Ni1307     Ni  0.98036013  0.01997421  0.50842220     1.26300
O1308       O  0.51501559  0.49827106  0.92866845    -0.66700
O1309       O  0.98453736  0.06004179  0.50996676    -0.79000
C1310       C  0.92328159  0.00788832  0.98732265     0.84400
O1311       O  0.94013488  0.01419840  0.51668365    -0.66200
Ni1312     Ni  0.54712155  0.03771686  0.53538155     1.27400
Ni1313     Ni  0.51713818  0.48453566  0.99330809     1.26100
H1314       H  0.97367211  0.46658082  0.53494645     0.39000
O1315       O  0.93199104  0.49821922  0.70781242    -0.81000
O1316       O  0.55647239  0.48337276  0.73476714    -0.65700
O1317       O  0.97734654  0.47658061  0.75570452    -1.12300
C1318       C  0.01124497  0.07464976  0.76685896     1.05900
O1319       O  0.56528877  0.99618328  0.79582158    -0.78900
O1320       O  0.52974153  0.01501468  0.84108601    -0.66500
Ni1321     Ni  0.94886852  0.46382565  0.71749812     1.34900
C1322       C  0.50359622  0.00463754  0.85216501     0.84600
O1323       O  0.51036074  0.43915169  0.73968321    -0.79400
O1324       O  0.96340399  0.42818541  0.72548294    -0.89700
C1325       C  0.57384478  0.48865899  0.76439650     0.84200
O1326       O  0.96826339  0.48243795  0.66112602    -0.67900
O1327       O  0.53570480  0.06753116  0.77440441    -0.87200
C1328       C  0.99429054  0.49362091  0.65012955     0.85000
C1329       C  0.48797196  0.42132116  0.73294443     1.06600
H1330       H  0.52511622  0.03266412  0.71765550     0.38400
O1331       O  0.52074993  0.01865042  0.74704650    -1.09900
O1332       O  0.98402343  0.00207578  0.82379302    -0.66500
Ni1333     Ni  0.98186840  0.01635611  0.75926810     1.26300
O1334       O  0.51405689  0.49449738  0.67867516    -0.66700
O1335       O  0.98842590  0.05673261  0.76147350    -0.79000
C1336       C  0.92402844  0.00650941  0.73882919     0.84400
O1337       O  0.94175107  0.01234879  0.76771768    -0.66200
Ni1338     Ni  0.54943980  0.03136875  0.78467399     1.27400
Ni1339     Ni  0.51635826  0.47914466  0.74306850     1.26100
H1340       H  0.97301328  0.46264398  0.78513568     0.39000
O1341       O  0.74716747  0.51671499  0.92667258    -0.74500
O1342       O  0.74141805  0.45253816  0.53471426    -0.74600
O1343       O  0.70414160  0.48301784  0.48281185    -0.74600
O1344       O  0.78448440  0.48690319  0.47762008    -0.74700
O1345       O  0.79280887  0.01973043  0.01513577    -0.74600
O1346       O  0.71244516  0.01605781  0.02031087    -0.74600
O1347       O  0.74977908  0.98612467  0.57146555    -0.74600
O1348       O  0.75564462  0.05034255  0.96336101    -0.74600
Ni1349     Ni  0.74399952  0.48368980  0.47901987     1.25400
Ni1350     Ni  0.75293687  0.01915842  0.01904390     1.25400
C1351       C  0.75233772  0.54380192  0.92709598     0.87600
C1352       C  0.74476824  0.45904843  0.57100648     0.87600
C1353       C  0.69500243  0.49902511  0.50230975     0.87600
C1354       C  0.80193835  0.50382073  0.99538266     0.87800
O1355       O  0.74445865  0.44972374  0.76476445    -0.74500
O1356       O  0.75413286  0.51782417  0.80539672    -0.74600
O1357       O  0.70862633  0.47914014  0.78893611    -0.74600
O1358       O  0.78988391  0.48876330  0.78184282    -0.74700
O1359       O  0.78988106  0.01885718  0.71219470    -0.74600
O1360       O  0.70849712  0.00943302  0.71944965    -0.74600
O1361       O  0.75409759  0.04847345  0.73592379    -0.74600
O1362       O  0.74421263  0.98055121  0.69546075    -0.74600
Ni1363     Ni  0.74926875  0.48281262  0.78776805     1.25400
Ni1364     Ni  0.74918210  0.01537220  0.71324595     1.25400
C1365       C  0.74284777  0.45434457  0.72282287     0.87600
C1366       C  0.75559491  0.54401303  0.77777961     0.87600
C1367       C  0.69515826  0.49279826  0.75552204     0.87600
C1368       C  0.80328590  0.50524850  0.74579920     0.87800
C1369       C  0.75526840  0.56696324  0.88408392    -0.05600
C1370       C  0.78199110  0.07419816  0.86295298    -0.33000
C1371       C  0.78345865  0.07513915  0.81857776     0.36200
C1372       C  0.75795980  0.56844296  0.79647834    -0.05900
C1373       C  0.73227926  0.57043940  0.81342736    -0.32900
C1374       C  0.73065411  0.56891936  0.85804328     0.36200
H1375       H  0.80119379  0.07323349  0.88259723     0.16500
O1376       O  0.80906550  0.07501648  0.80126009    -0.60400
H1377       H  0.71254568  0.56636007  0.79588323     0.16500
O1378       O  0.70438085  0.56363509  0.87773925    -0.60500
H1379       H  0.69645378  0.54202389  0.88348859     0.43500
H1380       H  0.81767564  0.09633448  0.78678623     0.43500
C1381       C  0.74228602  0.43577988  0.61394321    -0.05600
C1382       C  0.71572575  0.92762222  0.63580995    -0.33000
C1383       C  0.71457549  0.92431447  0.68115090     0.36200
C1384       C  0.74027306  0.43021265  0.70339085    -0.05900
C1385       C  0.76580666  0.42921654  0.68475673    -0.32900
C1386       C  0.76714702  0.43313034  0.63921785     0.36200
H1387       H  0.69636355  0.92921763  0.61668082     0.16500
O1388       O  0.68905923  0.92349009  0.69972870    -0.60400
H1389       H  0.78567604  0.43254270  0.70228624     0.16500
O1390       O  0.79328471  0.43945862  0.61863519    -0.60500
H1391       H  0.80071916  0.46109395  0.61350626     0.43500
H1392       H  0.68394285  0.90327307  0.72151903     0.43500
C1393       C  0.66380147  0.48958597  0.75863888    -0.05600
C1394       C  0.64729862  0.99245377  0.72010268    -0.33000
C1395       C  0.61778247  0.99071507  0.72184299     0.36200
C1396       C  0.60425587  0.48671283  0.76245078    -0.05900
C1397       C  0.62070243  0.48328199  0.80112254    -0.32900
C1398       C  0.65013008  0.48458328  0.79950626     0.36200
H1399       H  0.65734590  0.99622214  0.68837078     0.16500
O1400       O  0.60271610  0.99459612  0.68316850    -0.60400
H1401       H  0.61082436  0.48013865  0.83273842     0.16500
O1402       O  0.66543204  0.48196366  0.83789032    -0.60500
H1403       H  0.67192286  0.50265503  0.83905668     0.43500
H1404       H  0.59489354  0.97413384  0.68183666     0.43500
C1405       C  0.89387501  0.00938912  0.74036212    -0.05600
C1406       C  0.87753995  0.01263660  0.70155802    -0.33000
C1407       C  0.84825441  0.01212855  0.70261732     0.36200
C1408       C  0.83459457  0.00813535  0.74304930    -0.05900
C1409       C  0.85098554  0.50551807  0.78170910    -0.32900
C1410       C  0.88040505  0.50645692  0.78053599     0.36200
H1411       H  0.88737794  0.01497282  0.67025851     0.16500
O1412       O  0.83304139  0.01442836  0.66418829    -0.60400
H1413       H  0.84089892  0.50246482  0.81313281     0.16500
O1414       O  0.89533969  0.50269445  0.81936981    -0.60500
H1415       H  0.90122316  0.52295538  0.82245600     0.43500
H1416       H  0.82666293  0.99365842  0.66332286     0.43500
C1417       C  0.66405350  0.49744403  0.50502524    -0.05600
C1418       C  0.65292565  0.00113423  0.54244833    -0.32400
C1419       C  0.62379320  0.99989237  0.54637660     0.36200
C1420       C  0.60508188  0.49561741  0.51188939    -0.05900
C1421       C  0.61633745  0.49137358  0.97472381    -0.32900
C1422       C  0.64552928  0.49199217  0.97133663     0.36200
H1423       H  0.66686137  0.00465161  0.56919404     0.16500
O1424       O  0.61401214  0.00304999  0.58416363    -0.60400
H1425       H  0.60251676  0.48802810  0.94779606     0.16500
O1426       O  0.65579931  0.48879212  0.93388343    -0.60500
H1427       H  0.65176197  0.46698728  0.93863925     0.43500
H1428       H  0.60800287  0.98237780  0.60426851     0.43500
C1429       C  0.89248978  0.00839718  0.98904034    -0.05600
C1430       C  0.87427523  0.00007676  0.95683014    -0.33000
C1431       C  0.84489852  0.99856666  0.95844909     0.36200
C1432       C  0.83299361  0.00546328  0.99272659    -0.05900
C1433       C  0.85105732  0.51461307  0.52436019    -0.32900
C1434       C  0.88048608  0.01579466  0.52307261     0.36200
H1435       H  0.88272445  0.99442984  0.93022193     0.16500
O1436       O  0.82809107  0.99041927  0.92612757    -0.60400
H1437       H  0.84233071  0.51999322  0.55101606     0.16500
O1438       O  0.89728214  0.52401683  0.55534732    -0.60500
H1439       H  0.89600664  0.50544389  0.58072780     0.43500
H1440       H  0.82795243  0.00931588  0.90190527     0.43500
C1441       C  0.99351272  0.33211155  0.73788508    -0.05600
C1442       C  0.51672201  0.35601247  0.72170465    -0.33000
C1443       C  0.51538795  0.38508572  0.72026503     0.36200
C1444       C  0.49027890  0.39084138  0.73419181    -0.05900
C1445       C  0.96682012  0.36703611  0.74922075    -0.32900
C1446       C  0.96833404  0.33792811  0.75139474     0.36200
H1447       H  0.53623010  0.35207829  0.71092384     0.16500
O1448       O  0.53838517  0.40784144  0.70372975    -0.60400
H1449       H  0.94727090  0.37091831  0.75994898     0.16500
O1450       O  0.94496064  0.31538266  0.76656279    -0.60500
H1451       H  0.93417690  0.31377132  0.73954670     0.43500
H1452       H  0.55157171  0.40732117  0.72904134     0.43500
C1453       C  0.00861845  0.16489538  0.75940688    -0.05600
C1454       C  0.98437137  0.14195950  0.77369660    -0.33000
C1455       C  0.98474536  0.11256201  0.77597645     0.36200
C1456       C  0.00975657  0.10556301  0.76411724    -0.05900
C1457       C  0.53415301  0.12846635  0.75053487    -0.32900
C1458       C  0.53364870  0.15792134  0.74772257     0.36200
H1459       H  0.96487176  0.14688645  0.78272016     0.16500
O1460       O  0.96065812  0.09085177  0.79042209    -0.60400
H1461       H  0.55372277  0.12360520  0.74164743     0.16500
O1462       O  0.55807069  0.17945810  0.73522550    -0.60500
H1463       H  0.55848706  0.18566283  0.70228323     0.43500
H1464       H  0.96263099  0.08299948  0.82309942     0.43500
C1465       C  0.06372018  0.27211819  0.91164611    -0.05600
C1466       C  0.57045813  0.24575415  0.90915805    -0.33000
C1467       C  0.57063655  0.24110646  0.86776084     0.36200
C1468       C  0.06561475  0.26373280  0.82944102    -0.05900
C1469       C  0.06799387  0.29270557  0.83176915    -0.32900
C1470       C  0.06626878  0.29691113  0.87314371     0.36200
H1471       H  0.56934645  0.22670489  0.93885138     0.16500
O1472       O  0.57030642  0.21300399  0.86575793    -0.60400
H1473       H  0.06471140  0.31051321  0.80224201     0.16500
O1474       O  0.06063364  0.32325470  0.87493796    -0.60500
H1475       H  0.07893023  0.33406472  0.88345681     0.43500
H1476       H  0.55052282  0.20160313  0.87404580     0.43500
C1477       C  0.93384858  0.23215697  0.58265151    -0.05600
C1478       C  0.93159669  0.20578260  0.61834672    -0.33000
C1479       C  0.93334880  0.20725720  0.66175341     0.36200
C1480       C  0.93719533  0.23531853  0.66839029    -0.05900
C1481       C  0.43107336  0.25952988  0.63382009    -0.32900
C1482       C  0.42882957  0.25784287  0.59046999     0.36200
H1483       H  0.93464182  0.18558664  0.61262246     0.16500
O1484       O  0.93830055  0.18295566  0.69555248    -0.60400
H1485       H  0.43318516  0.28108900  0.63890059     0.16500
O1486       O  0.42837293  0.28326383  0.55559904    -0.60500
H1487       H  0.44808242  0.29539281  0.55291327     0.43500
H1488       H  0.92068044  0.17576407  0.71423089     0.43500
C1489       C  0.49759572  0.33772799  0.98718792    -0.05600
C1490       C  0.51788270  0.35384115  0.50898981    -0.33000
C1491       C  0.51618481  0.38259374  0.50856266     0.36200
C1492       C  0.49358427  0.39552684  0.98677068    -0.05900
C1493       C  0.97297186  0.37917235  0.96568113    -0.32900
C1494       C  0.97473132  0.35063395  0.96585221     0.36200
H1495       H  0.53538308  0.34422679  0.52622467     0.16500
O1496       O  0.53621130  0.39726672  0.53098320    -0.60400
H1497       H  0.95522809  0.38850230  0.94879374     0.16500
O1498       O  0.95368195  0.33550598  0.94543740    -0.60500
H1499       H  0.93807734  0.32594161  0.96793076     0.43500
H1500       H  0.55261987  0.40687837  0.50996747     0.43500
C1501       C  0.99828896  0.16682791  0.50990018    -0.05600
C1502       C  0.51205169  0.14998047  0.04640217    -0.33000
C1503       C  0.51400671  0.12074610  0.05036877     0.36200
C1504       C  0.00214505  0.10781446  0.51751682    -0.05900
C1505       C  0.98788669  0.12418290  0.48172486    -0.32900
C1506       C  0.98620508  0.15356558  0.47737764     0.36200
H1507       H  0.52131961  0.15944644  0.07204562     0.16500
O1508       O  0.52736178  0.10497389  0.08651143    -0.60400
H1509       H  0.97895169  0.11454356  0.45608415     0.16500
O1510       O  0.97323922  0.16919667  0.44066097    -0.60500
H1511       H  0.98867362  0.17882068  0.41787267     0.43500
H1512       H  0.51185940  0.09355292  0.10857481     0.43500
O1513       O  0.98324108  0.71296723  0.97537342    -0.74500
O1514       O  0.98391668  0.79448127  0.46349190    -0.74600
O1515       O  0.01524439  0.76581853  0.42949515    -0.74600
O1516       O  0.95176333  0.74208610  0.00902685    -0.74700
O1517       O  0.48270898  0.74017092  0.06465431    -0.74600
O1518       O  0.54600112  0.76306697  0.48544213    -0.74600
O1519       O  0.51468343  0.79260315  0.51904615    -0.74600
O1520       O  0.51360935  0.71088493  0.03143019    -0.74600
Ni1521     Ni  0.98265917  0.75396230  0.96700718     1.25400
Ni1522     Ni  0.51508341  0.75154487  0.52736525     1.25400
C1523       C  0.49834943  0.69841552  0.00533009     0.87600
C1524       C  0.49890317  0.80682852  0.48992710     0.87600
C1525       C  0.04079954  0.76767426  0.44414816     0.87600
C1526       C  0.95708997  0.73774773  0.05021817     0.87800
O1527       O  0.99066139  0.69990128  0.28364641    -0.74500
O1528       O  0.98235491  0.77921356  0.27217635    -0.74600
O1529       O  0.95480949  0.73481496  0.24019329    -0.74600
O1530       O  0.01828766  0.74385200  0.31602320    -0.74700
O1531       O  0.54883720  0.76282771  0.25827066    -0.74600
O1532       O  0.48537855  0.75291576  0.18243701    -0.74600
O1533       O  0.51263743  0.79736078  0.21428026    -0.74600
O1534       O  0.52156056  0.71794132  0.22651935    -0.74600
Ni1535     Ni  0.98554533  0.73884030  0.28017018     1.25400
Ni1536     Ni  0.51815121  0.75835083  0.21820892     1.25400
C1537       C  0.00714282  0.69579291  0.25658889     0.87600
C1538       C  0.99617605  0.80139238  0.24149559     0.87600
C1539       C  0.96000516  0.74196530  0.19864907     0.87600
C1540       C  0.04358608  0.75544696  0.29986808     0.87800
O1541       O  0.93250856  0.00074082  0.45622649    -0.81000
O1542       O  0.55727000  0.99030870  0.48472651    -0.65700
O1543       O  0.97790127  0.98050339  0.00548790    -1.12300
C1544       C  0.00608169  0.57799606  0.01907637     1.05900
O1545       O  0.56574419  0.50463137  0.04441183    -0.78900
O1546       O  0.52803923  0.51749302  0.09135342    -0.66500
Ni1547     Ni  0.94996237  0.96670677  0.46760559     1.34900
C1548       C  0.50201068  0.50627604  0.10193872     0.84600
O1549       O  0.51237498  0.94424655  0.49191142    -0.79400
O1550       O  0.96553709  0.93175952  0.47762061    -0.89700
C1551       C  0.57463894  0.99701382  0.01347710     0.84200
O1552       O  0.96952269  0.98394953  0.41124748    -0.67900
O1553       O  0.53072411  0.57179858  0.02897727    -0.87200
C1554       C  0.99555539  0.99507604  0.40022808     0.85000
C1555       C  0.49038549  0.92569301  0.48569115     1.06600
H1556       H  0.52401484  0.53820008  0.46691703     0.38400
O1557       O  0.51973863  0.52419095  0.49635064    -1.09900
O1558       O  0.98244979  0.50553180  0.07304503    -0.66500
Ni1559     Ni  0.98050624  0.52000427  0.00836797     1.26300
O1560       O  0.51492181  0.99826926  0.42866515    -0.66700
O1561       O  0.98472528  0.56009388  0.00986809    -0.79000
C1562       C  0.92316304  0.50794544  0.48733456     0.84400
O1563       O  0.94027871  0.51425281  0.01659026    -0.66200
Ni1564     Ni  0.54725116  0.53765939  0.03543158     1.27400
Ni1565     Ni  0.51701551  0.98454573  0.49332040     1.26100
H1566       H  0.97379797  0.96660094  0.03497079     0.39000
O1567       O  0.93199399  0.99831634  0.20760389    -0.81000
O1568       O  0.55641226  0.98328740  0.23489062    -0.65700
O1569       O  0.97728085  0.97660794  0.25562185    -1.12300
C1570       C  0.01126308  0.57468652  0.26675702     1.05900
O1571       O  0.56523713  0.49614346  0.29591927    -0.78900
O1572       O  0.52968625  0.51506370  0.34107247    -0.66500
Ni1573     Ni  0.94883575  0.96389746  0.21732206     1.34900
C1574       C  0.50353453  0.50470020  0.35212777     0.84600
O1575       O  0.51027284  0.93913477  0.23969366    -0.79400
O1576       O  0.96334200  0.92823880  0.22529309    -0.89700
C1577       C  0.57377883  0.98857855  0.26452362     0.84200
O1578       O  0.96828718  0.98251538  0.16101042    -0.67900
O1579       O  0.53571677  0.56755256  0.27431818    -0.87200
C1580       C  0.99432982  0.99364534  0.15008464     0.85000
C1581       C  0.48789547  0.92134514  0.23282486     1.06600
H1582       H  0.52512223  0.53264070  0.21765498     0.38400
O1583       O  0.52073379  0.51863869  0.24704821    -1.09900
O1584       O  0.98397247  0.50212982  0.32373327    -0.66500
Ni1585     Ni  0.98184968  0.51639382  0.25918590     1.26300
O1586       O  0.51406977  0.99447621  0.17868173    -0.66700
O1587       O  0.98843804  0.55677669  0.26137059    -0.79000
C1588       C  0.92401511  0.50659373  0.23861616     0.84400
O1589       O  0.94172149  0.51243131  0.26753237    -0.66200
Ni1590     Ni  0.54941808  0.53135981  0.28468172     1.27400
Ni1591     Ni  0.51629840  0.97912081  0.24308722     1.26100
H1592       H  0.97290690  0.96267276  0.28504488     0.39000
O1593       O  0.74701238  0.01693397  0.42644911    -0.74500
O1594       O  0.74139680  0.95229079  0.03491890    -0.74600
O1595       O  0.70422250  0.98288895  0.98298482    -0.74600
O1596       O  0.78452810  0.98655459  0.97788537    -0.74700
O1597       O  0.79270152  0.52009987  0.51483402    -0.74600
O1598       O  0.71229858  0.51617389  0.52016472    -0.74600
O1599       O  0.74981880  0.48587281  0.07168717    -0.74600
O1600       O  0.75541849  0.55057527  0.46312099    -0.74600
Ni1601     Ni  0.74405870  0.98345299  0.97923782     1.25400
Ni1602     Ni  0.75280649  0.51940313  0.51881234     1.25400
C1603       C  0.75212030  0.04402175  0.42686178     0.87600
C1604       C  0.74473912  0.95879093  0.07121652     0.87600
C1605       C  0.69511899  0.99894159  0.00243866     0.87600
C1606       C  0.80185515  0.00420528  0.49509188     0.87800
O1607       O  0.74446491  0.94987980  0.26471618    -0.74500
O1608       O  0.75408720  0.01801472  0.30521191    -0.74600
O1609       O  0.70861620  0.97927407  0.28887934    -0.74600
O1610       O  0.78987602  0.98898982  0.28163861    -0.74700
O1611       O  0.78983658  0.51904603  0.21196635    -0.74600
O1612       O  0.70843268  0.50951268  0.21936365    -0.74600
O1613       O  0.75399307  0.54863088  0.23571874    -0.74600
O1614       O  0.74418039  0.48065520  0.19537707    -0.74600
Ni1615     Ni  0.74925985  0.98299397  0.28764139     1.25400
Ni1616     Ni  0.74912087  0.51550626  0.21309126     1.25400
C1617       C  0.74282460  0.95445586  0.22278941     0.87600
C1618       C  0.75547938  0.04418218  0.27757295     0.87600
C1619       C  0.69511377  0.99288687  0.25547426     0.87600
C1620       C  0.80325295  0.00544811  0.24555824     0.87800
C1621       C  0.75505403  0.06717768  0.38383902    -0.05600
C1622       C  0.78179880  0.57440345  0.36274386    -0.33000
C1623       C  0.78329546  0.57531092  0.31839740     0.36200
C1624       C  0.75779997  0.06860927  0.29625844    -0.05900
C1625       C  0.73210418  0.07061121  0.31315870    -0.32900
C1626       C  0.73045360  0.06912405  0.35776002     0.36200
H1627       H  0.80098746  0.57342823  0.38242121     0.16500
O1628       O  0.80891343  0.57510585  0.30120462    -0.60400
H1629       H  0.71238243  0.06652712  0.29558933     0.16500
O1630       O  0.70417119  0.06387834  0.37740733    -0.60500
H1631       H  0.69624263  0.04226228  0.38322231     0.43500
H1632       H  0.81643349  0.59612083  0.28349144     0.43500
C1633       C  0.74220859  0.93551259  0.11413991    -0.05600
C1634       C  0.71566623  0.42746204  0.13598702    -0.33000
C1635       C  0.71452878  0.42434759  0.18126186     0.36200
C1636       C  0.74022132  0.93027757  0.20345285    -0.05900
C1637       C  0.76573922  0.92916111  0.18491143    -0.32900
C1638       C  0.76705959  0.93286752  0.13943663     0.36200
H1639       H  0.69630850  0.42903600  0.11684131     0.16500
O1640       O  0.68902943  0.42367415  0.19974798    -0.60400
H1641       H  0.78561487  0.93252482  0.20241148     0.16500
O1642       O  0.79318556  0.93904764  0.11887839    -0.60500
H1643       H  0.80065842  0.96070029  0.11351949     0.43500
H1644       H  0.68401322  0.40362457  0.22200571     0.43500
C1645       C  0.66375652  0.98963273  0.25865162    -0.05600
C1646       C  0.64722998  0.49238133  0.22017488    -0.33000
C1647       C  0.61770518  0.49056831  0.22197521     0.36200
C1648       C  0.60419537  0.98664219  0.26257292    -0.05900
C1649       C  0.62068463  0.98333961  0.30119471    -0.32900
C1650       C  0.65012066  0.98469752  0.29952384     0.36200
H1651       H  0.65725113  0.49609648  0.18844240     0.16500
O1652       O  0.60259164  0.49428258  0.18335603    -0.60400
H1653       H  0.61083391  0.98025875  0.33280583     0.16500
O1654       O  0.66546375  0.98220301  0.33785313    -0.60500
H1655       H  0.67217310  0.00295172  0.33866391     0.43500
H1656       H  0.59489973  0.47377796  0.18210499     0.43500
C1657       C  0.89384844  0.50946005  0.24011072    -0.05600
C1658       C  0.87749413  0.51263213  0.20132401    -0.33000
C1659       C  0.84821236  0.51217981  0.20236929     0.36200
C1660       C  0.83457780  0.50831828  0.24276873    -0.05900
C1661       C  0.85096992  0.00573551  0.28140639    -0.32900
C1662       C  0.88037719  0.00660781  0.28024972     0.36200
H1663       H  0.88731370  0.51487760  0.17005227     0.16500
O1664       O  0.83297863  0.51441485  0.16396801    -0.60400
H1665       H  0.84090190  0.00275910  0.31281224     0.16500
O1666       O  0.89530947  0.00285075  0.31908481    -0.60500
H1667       H  0.90121570  0.02311686  0.32214410     0.43500
H1668       H  0.82670537  0.49363994  0.16307976     0.43500
C1669       C  0.66417615  0.99745167  0.00507451    -0.05600
C1670       C  0.65310155  0.50151574  0.04223327    -0.32400
C1671       C  0.62397603  0.50032109  0.04611599     0.36200
C1672       C  0.60520356  0.99568549  0.01185439    -0.05900
C1673       C  0.61623739  0.99162339  0.47452152    -0.32900
C1674       C  0.64543075  0.99226899  0.47109036     0.36200
H1675       H  0.66706097  0.50528377  0.06882245     0.16500
O1676       O  0.61425362  0.50388852  0.08363149    -0.60400
H1677       H  0.60244843  0.98854268  0.44743040     0.16500
O1678       O  0.65574574  0.98941249  0.43341136    -0.60500
H1679       H  0.65166517  0.96765857  0.43773172     0.43500
H1680       H  0.60839793  0.48333575  0.10418612     0.43500
C1681       C  0.89240340  0.50863234  0.48891856    -0.05600
C1682       C  0.87420084  0.50040140  0.45663223    -0.33000
C1683       C  0.84483969  0.49899046  0.45816103     0.36200
C1684       C  0.83293149  0.50589701  0.49242338    -0.05900
C1685       C  0.85112412  0.01419699  0.02464246    -0.32900
C1686       C  0.88057582  0.51548524  0.02325767     0.36200
H1687       H  0.88264382  0.49472468  0.43004909     0.16500
O1688       O  0.82804639  0.49090903  0.42577819    -0.60400
H1689       H  0.84239776  0.01954516  0.05132989     0.16500
O1690       O  0.89736533  0.02374669  0.05549749    -0.60500
H1691       H  0.89615554  0.00517911  0.08087120     0.43500
H1692       H  0.82782420  0.50984774  0.40168828     0.43500
C1693       C  0.99354405  0.83213804  0.23793438    -0.05600
C1694       C  0.51675891  0.85604426  0.22182168    -0.33000
C1695       C  0.51537062  0.88512504  0.22025907     0.36200
C1696       C  0.49020949  0.89087792  0.23402216    -0.05900
C1697       C  0.96672982  0.86707597  0.24890222    -0.32900
C1698       C  0.96829099  0.83796287  0.25117405     0.36200
H1699       H  0.53631211  0.85210958  0.21119276     0.16500
O1700       O  0.53837146  0.90788867  0.20377328    -0.60400
H1701       H  0.94713218  0.87096124  0.25946093     0.16500
O1702       O  0.94489221  0.81541995  0.26617257    -0.60500
H1703       H  0.93423067  0.81378633  0.23906781     0.43500
H1704       H  0.55152881  0.90737710  0.22911740     0.43500
C1705       C  0.00867140  0.66491212  0.25952033    -0.05600
C1706       C  0.98439457  0.64199172  0.27364785    -0.33000
C1707       C  0.98475103  0.61260916  0.27581462     0.36200
C1708       C  0.00978172  0.60560084  0.26403895    -0.05900
C1709       C  0.53420218  0.62849030  0.25059319    -0.32900
C1710       C  0.53370801  0.65793690  0.24785226     0.36200
H1711       H  0.96488263  0.64692129  0.28262001     0.16500
O1712       O  0.96062218  0.59092196  0.29006195    -0.60400
H1713       H  0.55378276  0.62362715  0.24175016     0.16500
O1714       O  0.55814075  0.67946598  0.23541389    -0.60500
H1715       H  0.55861294  0.68564454  0.20247343     0.43500
H1716       H  0.96253179  0.58296959  0.32273855     0.43500
C1717       C  0.06351533  0.77186064  0.41241116    -0.05600
C1718       C  0.57010588  0.74542318  0.40996147    -0.33000
C1719       C  0.57030722  0.74077670  0.36856620     0.36200
C1720       C  0.06548116  0.76347770  0.33020478    -0.05900
C1721       C  0.06799780  0.79246403  0.33255007    -0.32900
C1722       C  0.06624764  0.79667314  0.37392067     0.36200
H1723       H  0.56884983  0.72634956  0.43965040     0.16500
O1724       O  0.56981044  0.71263899  0.36657196    -0.60400
H1725       H  0.06486401  0.81032472  0.30299989     0.16500
O1726       O  0.06078952  0.82309002  0.37569390    -0.60500
H1727       H  0.07924915  0.83398770  0.38357049     0.43500
H1728       H  0.54998180  0.70135507  0.37478716     0.43500
C1729       C  0.93438564  0.73235029  0.08249216    -0.05600
C1730       C  0.93211653  0.70596961  0.11817382    -0.33000
C1731       C  0.93372811  0.70741505  0.16158988     0.36200
C1732       C  0.93751092  0.73546429  0.16824700    -0.05900
C1733       C  0.43145797  0.75969304  0.13364460    -0.32900
C1734       C  0.42934546  0.75803761  0.09027975     0.36200
H1735       H  0.93521506  0.68578747  0.11246329     0.16500
O1736       O  0.93863080  0.68310467  0.19541997    -0.60400
H1737       H  0.43353276  0.78124252  0.13874339     0.16500
O1738       O  0.42896142  0.78347554  0.05540606    -0.60500
H1739       H  0.44867397  0.79558785  0.05282668     0.43500
H1740       H  0.92102731  0.67598964  0.21413283     0.43500
C1741       C  0.49726953  0.83759124  0.48768618    -0.05600
C1742       C  0.51820199  0.85398269  0.00846921    -0.33000
C1743       C  0.51642655  0.88267629  0.00822326     0.36200
C1744       C  0.49342277  0.89551343  0.48688224    -0.05900
C1745       C  0.97280746  0.87915828  0.46579854    -0.32900
C1746       C  0.97447157  0.85055084  0.46619413     0.36200
H1747       H  0.53576453  0.84441686  0.02556148     0.16500
O1748       O  0.53647915  0.89736322  0.03059217    -0.60400
H1749       H  0.95512168  0.88853222  0.44877089     0.16500
O1750       O  0.95338577  0.83540387  0.44585970    -0.60500
H1751       H  0.93777748  0.82592005  0.46836315     0.43500
H1752       H  0.55283602  0.90704316  0.00949247     0.43500
C1753       C  0.99862486  0.66691753  0.00973195    -0.05600
C1754       C  0.51172161  0.64988202  0.54656107    -0.33000
C1755       C  0.51373281  0.62067732  0.55046026     0.36200
C1756       C  0.00238143  0.60785282  0.01748016    -0.05900
C1757       C  0.98812827  0.62421877  0.98168088    -0.32900
C1758       C  0.98648913  0.65361938  0.97727511     0.36200
H1759       H  0.52095652  0.65932249  0.57224610     0.16500
O1760       O  0.52710062  0.60490424  0.58658568    -0.60400
H1761       H  0.97915982  0.61456028  0.95607560     0.16500
O1762       O  0.97350748  0.66923233  0.94056216    -0.60500
H1763       H  0.98892431  0.67881737  0.91773712     0.43500
H1764       H  0.51158351  0.59332200  0.60854447     0.43500
O1765       O  0.98291298  0.71289187  0.47560577    -0.74500
O1766       O  0.98420722  0.79457747  0.96307277    -0.74600
O1767       O  0.01546508  0.76589641  0.92900538    -0.74600
O1768       O  0.95136663  0.74198648  0.50921972    -0.74700
O1769       O  0.48219956  0.73994829  0.56500545    -0.74600
O1770       O  0.54634381  0.76323469  0.98478618    -0.74600
O1771       O  0.51510750  0.79280094  0.01844178    -0.74600
O1772       O  0.51317540  0.71071670  0.53180705    -0.74600
Ni1773     Ni  0.98235318  0.75388112  0.46733624     1.25400
Ni1774     Ni  0.51551705  0.75173613  0.02686186     1.25400
C1775       C  0.49797831  0.69830246  0.50559163     0.87600
C1776       C  0.49925523  0.80697665  0.98940025     0.87600
C1777       C  0.04105315  0.76782116  0.94352130     0.87600
C1778       C  0.95660968  0.73757459  0.55045115     0.87800
O1779       O  0.99067133  0.69990517  0.78352829    -0.74500
O1780       O  0.98233353  0.77919105  0.77205089    -0.74600
O1781       O  0.95469579  0.73472243  0.74024745    -0.74600
O1782       O  0.01839712  0.74393909  0.81564700    -0.74700
O1783       O  0.54878045  0.76289577  0.75768152    -0.74600
O1784       O  0.48511004  0.75282227  0.68229747    -0.74600
O1785       O  0.51245918  0.79734356  0.71395915    -0.74600
O1786       O  0.52140846  0.71792063  0.72618991    -0.74600
Ni1787     Ni  0.98554527  0.73883375  0.78003086     1.25400
Ni1788     Ni  0.51797919  0.75833317  0.71785324     1.25400
C1789       C  0.00708100  0.69578504  0.75638998     0.87600
C1790       C  0.99609212  0.80137186  0.74131140     0.87600
C1791       C  0.95977881  0.74184705  0.69866887     0.87600
C1792       C  0.04364801  0.75557101  0.79930407     0.87800
O1793       O  0.93265171  0.00070702  0.95621282    -0.81000
O1794       O  0.55738703  0.99029165  0.98468464    -0.65700
O1795       O  0.97778052  0.98050310  0.50548038    -1.12300
C1796       C  0.00589514  0.57798249  0.51908763     1.05900
O1797       O  0.56568869  0.50472691  0.54439478    -0.78900
O1798       O  0.52793464  0.51755721  0.59132967    -0.66500
Ni1799     Ni  0.95006657  0.96665090  0.96767381     1.34900
C1800       C  0.50192140  0.50626705  0.60196069     0.84600
O1801       O  0.51247931  0.94424281  0.99186146    -0.79400
O1802       O  0.96561993  0.93168556  0.97776169    -0.89700
C1803       C  0.57453525  0.99702500  0.51350700     0.84200
O1804       O  0.96961902  0.98382534  0.91130812    -0.67900
O1805       O  0.53056289  0.57183638  0.52890099    -0.87200
C1806       C  0.99563988  0.99500870  0.90026197     0.85000
C1807       C  0.49049116  0.92566364  0.98570805     1.06600
H1808       H  0.52417513  0.53819505  0.96692335     0.38400
O1809       O  0.51987413  0.52418158  0.99634761    -1.09900
O1810       O  0.98234573  0.50546582  0.57310011    -0.66500
Ni1811     Ni  0.98036613  0.51997533  0.50842480     1.26300
O1812       O  0.51500754  0.99826711  0.92866758    -0.66700
O1813       O  0.98454289  0.56004233  0.50996991    -0.79000
C1814       C  0.92328858  0.50788992  0.98732238     0.84400
O1815       O  0.94014072  0.51419912  0.51668575    -0.66200
Ni1816     Ni  0.54712741  0.53771817  0.53538413     1.27400
Ni1817     Ni  0.51713053  0.98453320  0.99330743     1.26100
H1818       H  0.97366550  0.96657952  0.53494544     0.39000
O1819       O  0.93198423  0.99822036  0.70780771    -0.81000
O1820       O  0.55646401  0.98336997  0.73476384    -0.65700
O1821       O  0.97733836  0.97657918  0.75570041    -1.12300
C1822       C  0.01125165  0.57465285  0.76685736     1.05900
O1823       O  0.56529769  0.49618787  0.79582344    -0.78900
O1824       O  0.52974961  0.51501996  0.84108629    -0.66500
Ni1825     Ni  0.94886025  0.96382573  0.71749282     1.34900
C1826       C  0.50360447  0.50464177  0.85216590     0.84600
O1827       O  0.51035148  0.93915073  0.73967547    -0.79400
O1828       O  0.96339437  0.92818464  0.72547689    -0.89700
C1829       C  0.57383620  0.98865540  0.76439389     0.84200
O1830       O  0.96825615  0.98243780  0.66112152    -0.67900
O1831       O  0.53571183  0.56753501  0.77440183    -0.87200
C1832       C  0.99428343  0.99362073  0.65012583     0.85000
C1833       C  0.48796250  0.92132064  0.73293622     1.06600
H1834       H  0.52512316  0.53266601  0.71765630     0.38400
O1835       O  0.52075742  0.51865292  0.74704777    -1.09900
O1836       O  0.98403157  0.50207867  0.82379468    -0.66500
Ni1837     Ni  0.98187578  0.51635792  0.75927021     1.26300
O1838       O  0.51404941  0.99449720  0.67867181    -0.66700
O1839       O  0.98843252  0.55673484  0.76147426    -0.79000
C1840       C  0.92403564  0.50650928  0.73883303     0.84400
O1841       O  0.94175843  0.51234962  0.76772074    -0.66200
Ni1842     Ni  0.54944753  0.53137290  0.78467378     1.27400
Ni1843     Ni  0.51634995  0.97914270  0.74306463     1.26100
H1844       H  0.97300480  0.96264211  0.78513118     0.39000
O1845       O  0.74716219  0.01671169  0.92667421    -0.74500
O1846       O  0.74141265  0.95253520  0.53471500    -0.74600
O1847       O  0.70413593  0.98301436  0.48281218    -0.74600
O1848       O  0.78447892  0.98690097  0.47762182    -0.74700
O1849       O  0.79281612  0.51973391  0.01513148    -0.74600
O1850       O  0.71245251  0.51606016  0.02031175    -0.74600
O1851       O  0.74978573  0.48612793  0.57146427    -0.74600
O1852       O  0.75565042  0.55034552  0.96335999    -0.74600
Ni1853     Ni  0.74399406  0.98368689  0.47902092     1.25400
Ni1854     Ni  0.75294422  0.51916142  0.01904225     1.25400
C1855       C  0.75233263  0.04379870  0.92709708     0.87600
C1856       C  0.74476215  0.95904528  0.57100738     0.87600
C1857       C  0.69499637  0.99902155  0.50230983     0.87600
C1858       C  0.80193152  0.00381766  0.99538672     0.87800
O1859       O  0.74444895  0.94971758  0.76476433    -0.74500
O1860       O  0.75412426  0.01781753  0.80539668    -0.74600
O1861       O  0.70861707  0.97913497  0.78893453    -0.74600
O1862       O  0.78987502  0.98875667  0.78184258    -0.74700
O1863       O  0.78988984  0.51886331  0.71219461    -0.74600
O1864       O  0.70850573  0.50943842  0.71945158    -0.74600
O1865       O  0.75410602  0.54847969  0.73592362    -0.74600
O1866       O  0.74422136  0.48055745  0.69546114    -0.74600
Ni1867     Ni  0.74925957  0.98280642  0.78776750     1.25400
Ni1868     Ni  0.74919075  0.51537822  0.71324651     1.25400
C1869       C  0.74283852  0.95433829  0.72282287     0.87600
C1870       C  0.75558690  0.04400649  0.77777991     0.87600
C1871       C  0.69514940  0.99279337  0.75552004     0.87600
C1872       C  0.80327716  0.00524245  0.74579922     0.87800
C1873       C  0.75526320  0.06695948  0.88408428    -0.05600
C1874       C  0.78199662  0.57420295  0.86295347    -0.33000
C1875       C  0.78346500  0.57514659  0.81857712     0.36200
C1876       C  0.75795295  0.06843607  0.79647951    -0.05900
C1877       C  0.73227291  0.07043330  0.81342883    -0.32900
C1878       C  0.73064848  0.06891452  0.85804427     0.36200
H1879       H  0.80119903  0.57323769  0.88259828     0.16500
O1880       O  0.80907233  0.57502641  0.80125815    -0.60400
H1881       H  0.71253898  0.06635344  0.79588570     0.16500
O1882       O  0.70437532  0.06362940  0.87774098    -0.60500
H1883       H  0.69645038  0.04201733  0.88349551     0.43500
H1884       H  0.81770052  0.59634702  0.78684220     0.43500
C1885       C  0.74227921  0.93577647  0.61394375    -0.05600
C1886       C  0.71573311  0.42762611  0.63581085    -0.33000
C1887       C  0.71458391  0.42432054  0.68115124     0.36200
C1888       C  0.74026408  0.93020597  0.70339193    -0.05900
C1889       C  0.76579805  0.92920987  0.68475898    -0.32900
C1890       C  0.76713966  0.93312593  0.63921960     0.36200
H1891       H  0.69637047  0.42922065  0.61668265     0.16500
O1892       O  0.68906807  0.42349737  0.69972918    -0.60400
H1893       H  0.78566694  0.93253498  0.70229007     0.16500
O1894       O  0.79327795  0.93945527  0.61863831    -0.60500
H1895       H  0.80071182  0.96109055  0.61351071     0.43500
H1896       H  0.68395425  0.40328288  0.72152703     0.43500
C1897       C  0.66379285  0.98958214  0.75863654    -0.05600
C1898       C  0.64730808  0.49246295  0.72010365    -0.33000
C1899       C  0.61779193  0.49072402  0.72184380     0.36200
C1900       C  0.60424739  0.98670943  0.76244849    -0.05900
C1901       C  0.62069503  0.98328436  0.80111880    -0.32900
C1902       C  0.65012262  0.98458574  0.79950240     0.36200
H1903       H  0.65735605  0.49623596  0.68837060     0.16500
O1904       O  0.60272659  0.49461067  0.68316801    -0.60400
H1905       H  0.61081792  0.98014560  0.83273355     0.16500
O1906       O  0.66542581  0.98197249  0.83788450    -0.60500
H1907       H  0.67191341  0.00266531  0.83904604     0.43500
H1908       H  0.59490274  0.47414996  0.68183056     0.43500
C1909       C  0.89388258  0.50938991  0.74036502    -0.05600
C1910       C  0.87754812  0.51263836  0.70156022    -0.33000
C1911       C  0.84826289  0.51213200  0.70261838     0.36200
C1912       C  0.83460303  0.50814013  0.74304972    -0.05900
C1913       C  0.85097769  0.00551474  0.78170792    -0.32900
C1914       C  0.88039767  0.00645589  0.78053346     0.36200
H1915       H  0.88738630  0.51497397  0.67026113     0.16500
O1916       O  0.83305011  0.51443179  0.66418914    -0.60400
H1917       H  0.84089127  0.00246119  0.81313190     0.16500
O1918       O  0.89533312  0.00269565  0.81936637    -0.60500
H1919       H  0.90121571  0.02295715  0.82245069     0.43500
H1920       H  0.82667285  0.49366195  0.66332265     0.43500
C1921       C  0.66404730  0.99744020  0.50502553    -0.05600
C1922       C  0.65293108  0.50113412  0.54245055    -0.32400
C1923       C  0.62379838  0.49989095  0.54637913     0.36200
C1924       C  0.60507583  0.99561507  0.51188962    -0.05900
C1925       C  0.61632930  0.99136754  0.97472585    -0.32900
C1926       C  0.64552117  0.99198632  0.97133819     0.36200
H1927       H  0.66686628  0.50464884  0.56919815     0.16500
O1928       O  0.61401608  0.50304297  0.58416955    -0.60400
H1929       H  0.60250805  0.98801934  0.94780004     0.16500
O1930       O  0.65579030  0.98878285  0.93388698    -0.60500
H1931       H  0.65175545  0.96697736  0.93864882     0.43500
H1932       H  0.60800749  0.48236933  0.60427010     0.43500
C1933       C  0.89249666  0.50839898  0.98903872    -0.05600
C1934       C  0.87428216  0.50007675  0.95682970    -0.33000
C1935       C  0.84490531  0.49856643  0.95844819     0.36200
C1936       C  0.83300036  0.50546538  0.99272339    -0.05900
C1937       C  0.85105139  0.01461047  0.52436262    -0.32900
C1938       C  0.88049195  0.51579667  0.52307136     0.36200
H1939       H  0.88273146  0.49442823  0.93022316     0.16500
O1940       O  0.82809773  0.49041592  0.92612909    -0.60400
H1941       H  0.84232479  0.01998942  0.55101970     0.16500
O1942       O  0.89727654  0.02401436  0.55534868    -0.60500
H1943       H  0.89600003  0.00544152  0.58072959     0.43500
H1944       H  0.82796020  0.50931095  0.90190294     0.43500
C1945       C  0.99350916  0.83211281  0.73787672    -0.05600
C1946       C  0.51671384  0.85601673  0.72168286    -0.33000
C1947       C  0.51537728  0.88508955  0.72024189     0.36200
C1948       C  0.49027016  0.89084179  0.73418066    -0.05900
C1949       C  0.96681518  0.86703398  0.74922075    -0.32900
C1950       C  0.96833170  0.83792629  0.75139640     0.36200
H1951       H  0.53622066  0.85208532  0.71089322     0.16500
O1952       O  0.53837016  0.90784812  0.70369461    -0.60400
H1953       H  0.94726740  0.87091391  0.75995764     0.16500
O1954       O  0.94496231  0.81537802  0.76657713    -0.60500
H1955       H  0.93417264  0.81376373  0.73956709     0.43500
H1956       H  0.55156198  0.90733148  0.72899930     0.43500
C1957       C  0.00862587  0.66489854  0.75940553    -0.05600
C1958       C  0.98437977  0.64196207  0.77370050    -0.33000
C1959       C  0.98475339  0.61256461  0.77597980     0.36200
C1960       C  0.00976314  0.60556625  0.76411432    -0.05900
C1961       C  0.53415848  0.62847021  0.75052573    -0.32900
C1962       C  0.53365454  0.65792517  0.74771414     0.36200
H1963       H  0.96488119  0.64688847  0.78272894     0.16500
O1964       O  0.96066746  0.59085370  0.79043176    -0.60400
H1965       H  0.55372712  0.62360947  0.74163324     0.16500
O1966       O  0.55807556  0.67946252  0.73521089    -0.60500
H1967       H  0.55848813  0.68566700  0.70226856     0.43500
H1968       H  0.96264581  0.58299934  0.82310775     0.43500
C1969       C  0.06371480  0.77212136  0.91164275    -0.05600
C1970       C  0.57045786  0.74575981  0.90915351    -0.33000
C1971       C  0.57064250  0.74111497  0.86775513     0.36200
C1972       C  0.06561973  0.76374109  0.82943585    -0.05900
C1973       C  0.06799368  0.79271256  0.83176654    -0.32900
C1974       C  0.06626200  0.79691518  0.87314174     0.36200
H1975       H  0.56934659  0.72670986  0.93884576     0.16500
O1976       O  0.57031807  0.71301417  0.86574991    -0.60400
H1977       H  0.06471072  0.81052021  0.80223973     0.16500
O1978       O  0.06061967  0.82325574  0.87493665    -0.60500
H1979       H  0.07891267  0.83406745  0.88346323     0.43500
H1980       H  0.55053468  0.70161068  0.87403216     0.43500
C1981       C  0.93384750  0.73215451  0.58265440    -0.05600
C1982       C  0.93159657  0.70578032  0.61834976    -0.33000
C1983       C  0.93335144  0.70725540  0.66175619     0.36200
C1984       C  0.93719873  0.73531693  0.66839262    -0.05900
C1985       C  0.43107554  0.75952809  0.63382323    -0.32900
C1986       C  0.42882951  0.75784064  0.59047347     0.36200
H1987       H  0.93464080  0.68558421  0.61262504     0.16500
O1988       O  0.93830485  0.68295415  0.69555437    -0.60400
H1989       H  0.43318805  0.78108735  0.63890358     0.16500
O1990       O  0.42837203  0.78326145  0.55560258    -0.60500
H1991       H  0.44808111  0.79539136  0.55291696     0.43500
H1992       H  0.92068963  0.67576838  0.71424373     0.43500
C1993       C  0.49758826  0.83772550  0.98718758    -0.05600
C1994       C  0.51787663  0.85383866  0.50899036    -0.33000
C1995       C  0.51617848  0.88259106  0.50856367     0.36200
C1996       C  0.49357627  0.89552412  0.98677108    -0.05900
C1997       C  0.97296435  0.87916993  0.96568021    -0.32900
C1998       C  0.97472399  0.85063153  0.96585114     0.36200
H1999       H  0.53537680  0.84422422  0.52622591     0.16500
O2000       O  0.53620443  0.89726368  0.53098538    -0.60400
H2001       H  0.95522085  0.88850007  0.94879215     0.16500
O2002       O  0.95367492  0.83550359  0.94543587    -0.60500
H2003       H  0.93807034  0.82593872  0.96792919     0.43500
H2004       H  0.55261322  0.90687582  0.50997019     0.43500
C2005       C  0.99828971  0.66682693  0.50990258    -0.05600
C2006       C  0.51205260  0.64998044  0.04640543    -0.33000
C2007       C  0.51400999  0.62074667  0.05037237     0.36200
C2008       C  0.00214928  0.60781448  0.51752046    -0.05900
C2009       C  0.98788907  0.62418122  0.48172934    -0.32900
C2010       C  0.98620594  0.65356350  0.47738130     0.36200
H2011       H  0.52131924  0.65944696  0.07204896     0.16500
O2012       O  0.52736617  0.60497586  0.08651492    -0.60400
H2013       H  0.97895393  0.61454096  0.45608963     0.16500
O2014       O  0.97323908  0.66919330  0.44066473    -0.60500
H2015       H  0.98867289  0.67881675  0.41787532     0.43500
H2016       H  0.51186431  0.59355435  0.10857895     0.43500
loop_ 
_geom_bond_atom_site_label_1 
_geom_bond_atom_site_label_2 
_geom_bond_distance 
_geom_bond_site_symmetry_2 
_ccdc_geom_bond_type 
O1           Ni9   1.916       .  S
O1         C1019   1.282   1_556  A
O2         Ni261   1.908       .  S
O2         C1020   1.280       .  A
O3         Ni261   1.906       .  S
O3           C13   1.281       .  A
O4           Ni9   1.913   1_554  S
O4           C14   1.276       .  A
O5         Ni262   1.903   1_655  S
O5         C1022   1.282       .  A
O6          Ni10   1.914       .  S
O6         C1021   1.277       .  A
O7          Ni10   1.918       .  S
O7           C12   1.282   1_455  A
O8         Ni262   1.912       .  S
O8           C11   1.281   1_455  A
Ni9         O254   1.908       .  S
Ni9         O255   1.906       .  S
Ni9       Ni1270   2.391   1_556  S
Ni10        O257   1.903   1_455  S
Ni10        O260   1.912       .  S
Ni10      Ni1269   2.391   1_455  S
C11        O1009   1.282   1_554  A
C11        C1249   1.484       .  S
C12        O1010   1.280       .  A
C12         C229   1.481       .  S
C13        O1014   1.277       .  A
C13         C205   1.459       .  S
C14        O1013   1.282       .  A
C14         C217   1.458       .  S
O15         Ni23   1.913       .  S
O15          C25   1.281       .  A
O16         Ni23   1.921       .  S
O16          C26   1.283       .  A
O17         Ni23   1.910       .  S
O17          C27   1.276       .  A
O18         Ni23   1.906       .  S
O18          C28   1.282       .  A
O19         Ni24   1.913       .  S
O19        C1036   1.277       .  A
O20         Ni24   1.909   1_655  S
O20        C1035   1.282       .  A
O21         Ni24   1.919       .  S
O21        C1034   1.282   1_455  A
O22         Ni24   1.924       .  S
O22        C1033   1.283       .  A
Ni23      Ni1032   2.392       .  S
Ni24      Ni1031   2.392   1_455  S
C25        O1030   1.283       .  A
C25         C193   1.480       .  S
C26        O1029   1.282       .  A
C26         C181   1.483       .  S
C27        O1028   1.282       .  A
C27         C220   1.457       .  S
C28        O1027   1.277       .  A
C28         C208   1.459       .  S
O29         Ni35   1.923       .  S
O29         C554   1.272       .  A
O30         Ni53   1.910       .  S
O30         C291   1.270       .  A
O31          H54   0.966       .  S
O31        Ni287   1.901   1_554  S
O31       Ni1313   1.895   1_554  S
O31        Ni551   1.912       .  S
C32          O49   1.277       .  A
C32        O1049   1.278       .  A
C32         C244   1.472       .  S
O33         Ni52   1.920       .  S
O33         C543   1.269   1_545  A
O34         Ni52   1.910       .  S
O34          C36   1.267       .  A
Ni35         O38   1.915       .  S
Ni35         O40   1.917       .  S
Ni35        O283   1.901       .  S
C36        O1054   1.278   1_455  A
C36        C1580   1.489   1_445  S
O37         Ni53   1.923       .  S
O37          C43   1.280   1_455  A
O38        C1051   1.279       .  A
C39         O282   1.270   1_554  A
C39         O537   1.269       .  A
C39         C160   1.483       .  S
O40          C42   1.269       .  A
O41         Ni52   1.924       .  S
O41        C1040   1.278       .  A
C42        O1056   1.279       .  A
C42        C1574   1.492       .  S
C43        O1046   1.279       .  A
C43         C232   1.481       .  S
H44          O45   0.967       .  S
O45        Ni557   1.920   1_545  S
O45       Ni1307   1.900   1_455  S
O45        Ni304   1.910       .  S
O46         Ni47   1.951       .  S
O46        C1044   1.278       .  A
Ni47         O51   1.907       .  S
Ni47         O49   1.916       .  S
Ni47        O535   1.912   1_545  S
Ni47       O1305   1.899   1_554  S
O48         Ni53   1.950       .  S
O48        C1050   1.279   1_455  A
C50         O533   1.272       .  A
C50         O303   1.269       .  A
C50         C169   1.484       .  S
O51         C302   1.269   1_554  A
Ni52        O297   1.910   1_554  S
Ni53       O1291   1.895   1_455  S
Ni53        O549   1.920       .  S
O55         Ni61   1.928       .  S
O55         C580   1.272       .  A
O56         Ni79   1.912       .  S
O56          C65   1.272       .  A
O57          H80   0.966       .  S
O57         Ni61   1.909       .  S
O57       Ni1087   1.902       .  S
O57        Ni577   1.922       .  S
C58          O75   1.282       .  A
C58        O1075   1.279       .  A
C58         C196   1.482       .  S
O59         Ni78   1.929   1_565  S
O59         C569   1.273       .  A
O60         Ni78   1.920       .  S
O60          C62   1.270       .  A
Ni61         O64   1.928       .  S
Ni61         O66   1.917       .  S
C62        O1080   1.279   1_455  A
C62        C1554   1.492   1_445  S
O63         Ni79   1.924       .  S
O63          C69   1.279   1_455  A
O64        C1077   1.279       .  A
C65         O563   1.273       .  A
C65         C136   1.485       .  S
O66          C68   1.269       .  A
O67         Ni78   1.920       .  S
O67        C1066   1.279       .  A
C68        O1082   1.278       .  A
C68        C1548   1.489       .  S
C69        O1072   1.279       .  A
C69         C184   1.485       .  S
H70          O71   0.967       .  S
O71         Ni78   1.901       .  S
O71        Ni583   1.915   1_545  S
O71       Ni1081   1.895   1_455  S
O72         Ni73   1.948       .  S
O72        C1070   1.279       .  A
Ni73         O77   1.915       .  S
Ni73         O75   1.928       .  S
Ni73        O561   1.922   1_545  S
Ni73       O1079   1.895       .  S
O74         Ni79   1.947       .  S
O74        C1076   1.278   1_455  A
C76          O77   1.272       .  A
C76         O559   1.272   1_545  A
C76         C145   1.485       .  S
Ni79       O1065   1.902   1_455  S
Ni79        O575   1.915       .  S
O81        Ni341   1.903       .  S
O81          C91   1.281       .  A
O82         Ni89   1.916   1_554  S
O82          C92   1.277       .  A
O83         Ni89   1.912       .  S
O83          C93   1.280   1_556  A
O84         Ni89   1.914       .  S
O84         C346   1.281       .  A
O85         Ni90   1.914       .  S
O85         C598   1.281       .  A
O86         Ni90   1.915       .  S
O86         C849   1.282   1_545  A
O87        Ni342   1.906   1_565  S
O87         C596   1.281       .  A
O88         Ni90   1.917       .  S
O88         C595   1.277       .  A
Ni89        O333   1.903       .  S
Ni89       Ni846   2.393   1_556  S
Ni90        O339   1.906   1_545  S
Ni90       Ni845   2.393   1_545  S
C91         O592   1.277       .  A
C91         C109   1.458       .  S
C92         O591   1.281       .  A
C92         C121   1.459       .  S
C93         O842   1.282       .  A
C93         C157   1.474       .  S
C94         O336   1.281       .  A
C94         O589   1.281       .  A
C94         C676   1.478       .  S
O95        Ni103   1.919       .  S
O95         C105   1.278       .  A
O96        Ni103   1.903       .  S
O96         C106   1.282       .  A
O97        Ni103   1.918       .  S
O97         C107   1.282       .  A
O98        Ni103   1.916       .  S
O98         C108   1.281       .  A
O99        Ni104   1.922       .  S
O99         C612   1.283       .  A
O100       Ni104   1.920       .  S
O100        C611   1.283   1_545  A
O101       Ni104   1.913       .  S
O101        C610   1.276       .  A
O102       Ni104   1.898   1_565  S
O102        C609   1.280       .  A
Ni103      Ni608   2.392       .  S
Ni104      Ni607   2.392   1_545  S
C105        O606   1.280       .  A
C105        C124   1.458       .  S
C106        O605   1.276       .  A
C106        C112   1.457       .  S
C107        O604   1.283       .  A
C107        C133   1.482       .  S
C108        O603   1.283       .  A
C108        C652   1.482       .  S
C109        C114   1.406       .  A
C109        C614   1.401       .  A
C110        C111   1.397       .  A
C110        C613   1.401       .  A
C110        H115   1.084       .  S
C111        C616   1.404       .  A
C111        O116   1.371       .  S
C112        C113   1.401       .  A
C112        C615   1.404       .  A
C113        C114   1.398       .  A
C113        H117   1.084       .  S
C114        O118   1.373       .  S
O116        H120   0.991       .  S
O118        H119   0.992       .  S
C121        C126   1.406       .  A
C121        C626   1.401       .  A
C122        C123   1.397       .  A
C122        C625   1.401       .  A
C122        H127   1.084       .  S
C123        C628   1.406       .  A
C123        O128   1.372       .  S
C124        C125   1.401       .  A
C124        C627   1.406       .  A
C125        C126   1.398       .  A
C125        H129   1.084       .  S
C126        O130   1.373       .  S
O128        H132   0.991       .  S
O130        H131   0.992       .  S
C133        C138   1.411       .  A
C133        C638   1.405       .  A
C134        C135   1.401       .  A
C134        C637   1.405       .  A
C134        H139   1.084       .  S
C135        C640   1.411       .  A
C135        O140   1.370       .  S
C136        C137   1.406       .  A
C136        C639   1.411       .  A
C137        C138   1.400       .  A
C137        H141   1.084       .  S
C138        O142   1.372       .  S
O140        H144   0.992       .  S
O142        H143   0.992       .  S
C145        C146   1.407       .  A
C145        C654   1.411       .  A
C146        C147   1.400       .  A
C146        H151   1.084       .  S
C147        C148   1.409       .  A
C147        O152   1.372       .  S
C148        C612   1.482       .  S
C148        C653   1.406       .  A
C149        C150   1.402       .  A
C149        C652   1.406       .  A
C149        H153   1.084       .  S
C150        C649   1.411       .  A
C150        O154   1.372       .  S
O152        H156   0.992   1_545  S
O154        H155   0.992       .  S
C157        C662   1.400       .  A
C157        C414   1.410   1_554  A
C158        C159   1.394       .  A
C158        C661   1.400   1_545  A
C158        H163   1.084       .  S
C159        C664   1.414   1_545  A
C159        O164   1.370       .  S
C160        C663   1.414       .  A
C160        C413   1.406   1_554  A
C161        C162   1.401       .  A
C161        C412   1.406       .  A
C161        H165   1.083       .  S
C162        C409   1.409       .  A
C162        O166   1.371       .  S
O164        H168   0.991   1_545  S
O166        H167   0.992       .  S
C169        C170   1.406       .  A
C169        C426   1.413       .  A
C170        C171   1.396   1_545  A
C170        H175   1.083   1_545  S
C171        C172   1.409   1_565  A
C171        O176   1.372       .  S
C172        C598   1.478       .  S
C172        C929   1.405       .  A
C173        C928   1.405   1_554  A
C173        C678   1.401       .  A
C173        H177   1.084       .  S
C174        C421   1.413   1_554  A
C174        C677   1.401       .  A
C174        O682   1.372       .  S
O176        H180   0.992   1_565  S
O178        C678   1.372       .  S
O178        H179   0.992       .  S
C181        C186   1.410       .  A
C181       C1190   1.406       .  A
C182        C183   1.403       .  A
C182       C1189   1.406   1_455  A
C182        H187   1.084       .  S
C183        C184   1.411   1_455  A
C183        O188   1.372       .  S
C184       C1193   1.406       .  A
C185        C186   1.400       .  A
C185       C1192   1.406       .  A
C185        H189   1.084       .  S
C186        O190   1.372       .  S
O188        H192   0.992       .  S
O190        H191   0.992       .  S
C193        C194   1.406       .  A
C193       C1206   1.408       .  A
C194        C195   1.400       .  A
C194        H199   1.084       .  S
C195        C196   1.410       .  A
C195        O200   1.372       .  S
C196       C1205   1.407       .  A
C197        C198   1.400       .  A
C197       C1204   1.407       .  A
C197        H201   1.084       .  S
C198       C1201   1.408       .  A
C198        O202   1.372       .  S
O200        H204   0.992       .  S
O202        H203   0.992       .  S
C205        C210   1.405       .  A
C205       C1214   1.402       .  A
C206        C207   1.399       .  A
C206       C1213   1.402       .  A
C206        H211   1.084       .  S
C207       C1216   1.405       .  A
C207        O212   1.373       .  S
C208        C209   1.402       .  A
C208       C1215   1.405       .  A
C209        C210   1.397       .  A
C209        H213   1.085       .  S
C210        O214   1.371       .  S
O212        H216   0.992       .  S
O214        H215   0.991       .  S
C217        C218   1.401       .  A
C217       C1230   1.406       .  A
C218        C219   1.396       .  A
C218        H223   1.084       .  S
C219        C220   1.406       .  A
C219        O224   1.372       .  S
C220       C1229   1.400       .  A
C221        C222   1.398       .  A
C221       C1228   1.400       .  A
C221        H225   1.084       .  S
C222       C1225   1.406       .  A
C222        O226   1.373       .  S
O224        H228   0.991       .  S
O226        H227   0.992       .  S
C229        C482   1.406   1_655  A
C229       C1242   1.411       .  A
C230        C231   1.401       .  A
C230        C481   1.406   1_454  A
C230        H235   1.083       .  S
C231        C484   1.410   1_454  A
C231        O236   1.372       .  S
C232        C483   1.410   1_655  A
C232       C1241   1.405       .  A
C233        C234   1.394       .  A
C233       C1240   1.405       .  A
C233        H237   1.084       .  S
C234       C1237   1.411       .  A
C234        O238   1.372       .  S
O236        H240   0.992       .  S
O238        H239   0.992       .  S
C241       C1019   1.484       .  S
C241        C246   1.414   1_554  A
C241       C1502   1.407       .  A
C242        C243   1.398       .  A
C242       C1501   1.407   1_455  A
C242        H247   1.083       .  S
C243       C1504   1.407       .  A
C243        O248   1.372       .  S
C244        C245   1.401   1_554  A
C244       C1503   1.407       .  A
C245        C246   1.399       .  A
C245        H249   1.084       .  S
C246        O250   1.371       .  S
O248        H252   0.992       .  S
O250        H251   0.992       .  S
O253       Ni261   1.916       .  S
O253       C1271   1.282       .  A
O254       C1272   1.280       .  A
O255        C265   1.281       .  A
O256       Ni261   1.914       .  S
O256        C266   1.276       .  A
O257       C1274   1.282       .  A
O258       Ni262   1.914   1_556  S
O258       C1273   1.277       .  A
O259       Ni262   1.917       .  S
O259        C264   1.282   1_454  A
O260        C263   1.281   1_455  A
Ni261     Ni1018   2.391       .  S
Ni262     Ni1017   2.391   1_454  S
C263       O1261   1.282       .  A
C263       C1501   1.484       .  S
C264       O1262   1.280       .  A
C264        C481   1.481       .  S
C265       O1266   1.277       .  A
C265        C457   1.459       .  S
C266       O1265   1.282       .  A
C266        C469   1.458       .  S
O267       Ni275   1.912       .  S
O267        C277   1.280       .  A
O268       Ni275   1.920       .  S
O268        C278   1.282       .  A
O269       Ni275   1.910       .  S
O269        C279   1.276       .  A
O270       Ni275   1.906       .  S
O270        C280   1.282       .  A
O271       Ni276   1.913       .  S
O271       C1288   1.277       .  A
O272       Ni276   1.909   1_655  S
O272       C1287   1.282       .  A
O273       Ni276   1.919       .  S
O273       C1286   1.282   1_455  A
O274       Ni276   1.924       .  S
O274       C1285   1.283       .  A
Ni275     Ni1284   2.392       .  S
Ni276     Ni1283   2.392   1_455  S
C277       O1282   1.283       .  A
C277        C445   1.479       .  S
C278       O1281   1.282       .  A
C278        C433   1.483       .  S
C279       O1280   1.282       .  A
C279        C472   1.458       .  S
C280       O1279   1.277       .  A
C280        C460   1.459       .  S
O281       Ni287   1.923       .  S
O281        C806   1.272       .  A
O282       Ni305   1.911       .  S
O283        H306   0.966       .  S
O283      Ni1061   1.895       .  S
O283       Ni803   1.912       .  S
C284        O301   1.276       .  A
C284       O1301   1.278       .  A
C284        C496   1.472       .  S
O285       Ni304   1.920       .  S
O285        C795   1.270   1_545  A
O286       Ni304   1.910       .  S
O286        C288   1.267       .  A
Ni287       O290   1.915       .  S
Ni287       O292   1.917       .  S
C288       O1306   1.278   1_455  A
C288       C1832   1.489   1_445  S
O289       Ni305   1.923       .  S
O289        C295   1.280   1_455  A
O290       C1303   1.279       .  A
C291        O789   1.270       .  A
C291        C412   1.483       .  S
O292        C294   1.269       .  A
O293       Ni304   1.923       .  S
O293       C1292   1.278       .  A
C294       O1308   1.278       .  A
C294       C1826   1.492       .  S
C295       O1298   1.279       .  A
C295        C484   1.481       .  S
H296        O297   0.967       .  S
O297       Ni809   1.920   1_545  S
O297      Ni1055   1.899   1_456  S
O298       Ni299   1.951       .  S
O298       C1296   1.278       .  A
Ni299       O303   1.907       .  S
Ni299       O301   1.915       .  S
Ni299       O787   1.912   1_545  S
Ni299      O1053   1.900       .  S
O300       Ni305   1.950       .  S
O300       C1302   1.278   1_455  A
C302        O785   1.272       .  A
C302        C421   1.484       .  S
Ni305      O1039   1.895   1_456  S
Ni305       O801   1.920       .  S
O307       Ni313   1.928       .  S
O307        C832   1.273       .  A
O308       Ni331   1.912       .  S
O308        C317   1.272       .  A
O309        H332   0.966       .  S
O309       Ni313   1.908       .  S
O309      Ni1339   1.902       .  S
O309       Ni829   1.922       .  S
C310        O327   1.282       .  A
C310       O1327   1.279       .  A
C310        C448   1.482       .  S
O311       Ni330   1.929   1_565  S
O311        C821   1.273       .  A
O312       Ni330   1.920       .  S
O312        C314   1.270       .  A
Ni313       O316   1.928       .  S
Ni313       O318   1.918       .  S
C314       O1332   1.278   1_455  A
C314       C1806   1.492   1_445  S
O315       Ni331   1.924       .  S
O315        C321   1.279   1_455  A
O316       C1329   1.279       .  A
C317        O815   1.273       .  A
C317        C388   1.485       .  S
O318        C320   1.269       .  A
O319       Ni330   1.920       .  S
O319       C1318   1.279       .  A
C320       O1334   1.278       .  A
C320       C1800   1.489       .  S
C321       O1324   1.279       .  A
C321        C436   1.485       .  S
H322        O323   0.967       .  S
O323       Ni835   1.915   1_545  S
O323      Ni1333   1.895   1_455  S
O323       Ni330   1.901       .  S
O324       Ni325   1.947       .  S
O324       C1322   1.278       .  A
Ni325       O329   1.914       .  S
Ni325       O327   1.928       .  S
Ni325       O813   1.922   1_545  S
Ni325      O1331   1.895       .  S
O326       Ni331   1.946       .  S
O326       C1328   1.278   1_455  A
C328        O811   1.273   1_545  A
C328        O329   1.271       .  A
C328        C397   1.484       .  S
Ni331      O1317   1.902   1_455  S
Ni331       O827   1.915       .  S
O333        C343   1.281       .  A
O334       Ni341   1.916       .  S
O334        C344   1.277       .  A
O335       Ni341   1.912       .  S
O335        C345   1.280       .  A
O336       Ni341   1.914       .  S
O337       Ni342   1.914       .  S
O337        C850   1.281   1_554  A
O338       Ni342   1.915       .  S
O338        C597   1.282   1_545  A
O339        C848   1.281       .  A
O340       Ni342   1.916   1_556  S
O340        C847   1.277       .  A
Ni341      Ni594   2.393       .  S
Ni342      Ni593   2.393   1_544  S
C343        O844   1.277       .  A
C343        C361   1.458       .  S
C344        O843   1.281       .  A
C344        C373   1.459       .  S
C345        O590   1.282       .  A
C345        C409   1.474       .  S
C346        O841   1.281   1_556  A
C346        C928   1.478       .  S
O347       Ni355   1.919       .  S
O347        C357   1.278       .  A
O348       Ni355   1.904       .  S
O348        C358   1.282       .  A
O349       Ni355   1.918       .  S
O349        C359   1.282       .  A
O350       Ni355   1.916       .  S
O350        C360   1.281       .  A
O351       Ni356   1.922       .  S
O351        C864   1.283       .  A
O352       Ni356   1.920       .  S
O352        C863   1.282   1_545  A
O353       Ni356   1.913       .  S
O353        C862   1.276       .  A
O354       Ni356   1.898   1_565  S
O354        C861   1.280       .  A
Ni355      Ni860   2.392       .  S
Ni356      Ni859   2.392   1_545  S
C357        O858   1.280       .  A
C357        C376   1.458       .  S
C358        O857   1.276       .  A
C358        C364   1.457       .  S
C359        O856   1.282       .  A
C359        C385   1.482       .  S
C360        O855   1.283       .  A
C360        C904   1.481       .  S
C361        C866   1.401       .  A
C361        C366   1.406       .  A
C362        C865   1.401       .  A
C362        C363   1.397       .  A
C362        H367   1.084       .  S
C363        C868   1.404       .  A
C363        O368   1.371       .  S
C364        C867   1.404       .  A
C364        C365   1.401       .  A
C365        C366   1.398       .  A
C365        H369   1.084       .  S
C366        O370   1.373       .  S
O368        H372   0.991       .  S
O370        H371   0.992       .  S
C373        C878   1.401       .  A
C373        C378   1.406       .  A
C374        C877   1.401       .  A
C374        C375   1.398       .  A
C374        H379   1.084       .  S
C375        C880   1.406       .  A
C375        O380   1.372       .  S
C376        C879   1.406       .  A
C376        C377   1.401       .  A
C377        C378   1.398       .  A
C377        H381   1.084       .  S
C378        O382   1.373       .  S
O380        H384   0.991       .  S
O382        H383   0.992       .  S
C385        C890   1.405       .  A
C385        C390   1.411       .  A
C386        C889   1.405       .  A
C386        C387   1.401       .  A
C386        H391   1.084       .  S
C387        C892   1.411       .  A
C387        O392   1.370       .  S
C388        C891   1.411       .  A
C388        C389   1.406       .  A
C389        C390   1.400       .  A
C389        H393   1.084       .  S
C390        O394   1.372       .  S
O392        H396   0.992       .  S
O394        H395   0.992       .  S
C397        C398   1.407       .  A
C397        C906   1.411       .  A
C398        C399   1.400       .  A
C398        H403   1.084       .  S
C399        C400   1.409       .  A
C399        O404   1.372       .  S
C400        C864   1.481       .  S
C400        C905   1.406       .  A
C401        C904   1.406       .  A
C401        C402   1.402       .  A
C401        H405   1.084       .  S
C402        C901   1.411       .  A
C402        O406   1.372       .  S
O404        H408   0.992   1_545  S
O406        H407   0.992       .  S
C409        C914   1.400       .  A
C410        C913   1.400   1_545  A
C410        C411   1.394   1_545  A
C410        H415   1.084       .  S
C411        C916   1.414       .  A
C411        O416   1.370   1_565  S
C412        C915   1.414       .  A
C413        C414   1.401       .  A
C413        H417   1.083       .  S
C414        O418   1.371       .  S
O416        H420   0.991   1_545  S
O418        H419   0.992       .  S
C421        C422   1.407       .  A
C422        C423   1.396   1_545  A
C422        H427   1.083   1_545  S
C423        C424   1.409   1_565  A
C423        O428   1.372       .  S
C424        C850   1.478       .  S
C424        C677   1.405   1_556  A
C425        C676   1.405       .  A
C425        C930   1.401       .  A
C425        H429   1.084       .  S
C426        C929   1.401       .  A
C426        O934   1.372       .  S
O428        H432   0.992   1_565  S
O430        C930   1.372       .  S
O430        H431   0.992       .  S
C433       C1442   1.406       .  A
C433        C438   1.410       .  A
C434       C1441   1.406   1_455  A
C434        C435   1.403       .  A
C434        H439   1.084       .  S
C435        C436   1.411   1_455  A
C435        O440   1.372       .  S
C436       C1445   1.406       .  A
C437       C1444   1.406       .  A
C437        C438   1.400       .  A
C437        H441   1.084       .  S
C438        O442   1.372       .  S
O440        H444   0.992       .  S
O442        H443   0.992       .  S
C445        C446   1.406       .  A
C445       C1458   1.408       .  A
C446        C447   1.400       .  A
C446        H451   1.084       .  S
C447        C448   1.409       .  A
C447        O452   1.372       .  S
C448       C1457   1.407       .  A
C449       C1456   1.407       .  A
C449        C450   1.400       .  A
C449        H453   1.084       .  S
C450       C1453   1.408       .  A
C450        O454   1.372       .  S
O452        H456   0.992       .  S
O454        H455   0.992       .  S
C457       C1466   1.402       .  A
C457        C462   1.405       .  A
C458       C1465   1.402       .  A
C458        C459   1.398       .  A
C458        H463   1.084       .  S
C459       C1468   1.405       .  A
C459        O464   1.373       .  S
C460       C1467   1.405       .  A
C460        C461   1.402       .  A
C461        C462   1.397       .  A
C461        H465   1.085       .  S
C462        O466   1.371       .  S
O464        H468   0.992       .  S
O466        H467   0.991       .  S
C469        C470   1.401       .  A
C469       C1482   1.406       .  A
C470        C471   1.396       .  A
C470        H475   1.084       .  S
C471        C472   1.406       .  A
C471        O476   1.372       .  S
C472       C1481   1.400       .  A
C473       C1480   1.400       .  A
C473        C474   1.398       .  A
C473        H477   1.084       .  S
C474       C1477   1.406       .  A
C474        O478   1.373       .  S
O476        H480   0.991       .  S
O478        H479   0.992       .  S
C481       C1494   1.411       .  A
C482        C483   1.401       .  A
C482        H487   1.083       .  S
C483        O488   1.372       .  S
C484       C1493   1.405       .  A
C485       C1492   1.405       .  A
C485        C486   1.394       .  A
C485        H489   1.084       .  S
C486       C1489   1.411       .  A
C486        O490   1.372       .  S
O488        H492   0.992       .  S
O490        H491   0.992       .  S
C493       C1271   1.484       .  S
C493       C1250   1.407       .  A
C493        C498   1.414       .  A
C494       C1249   1.407   1_455  A
C494        C495   1.398       .  A
C494        H499   1.083       .  S
C495       C1252   1.407       .  A
C495        O500   1.372       .  S
C496       C1251   1.407       .  A
C496        C497   1.401       .  A
C497        C498   1.399       .  A
C497        H501   1.084       .  S
C498        O502   1.371       .  S
O500        H504   0.992       .  S
O502        H503   0.992       .  S
O505       Ni513   1.916       .  S
O505       C1523   1.282   1_556  A
O506       Ni765   1.908       .  S
O506       C1524   1.280       .  A
O507       Ni765   1.906       .  S
O507        C517   1.281       .  A
O508       Ni513   1.913   1_554  S
O508        C518   1.276       .  A
O509       Ni766   1.903   1_655  S
O509       C1526   1.282       .  A
O510       Ni514   1.914       .  S
O510       C1525   1.277       .  A
O511       Ni514   1.918       .  S
O511        C516   1.282   1_455  A
O512       Ni766   1.912       .  S
O512        C515   1.281   1_455  A
Ni513       O758   1.908       .  S
Ni513       O759   1.906       .  S
Ni513     Ni1774   2.391   1_556  S
Ni514       O761   1.903   1_455  S
Ni514       O764   1.912       .  S
Ni514     Ni1773   2.391   1_455  S
C515       O1513   1.282   1_554  A
C515       C1753   1.484       .  S
C516       O1514   1.280       .  A
C516        C733   1.481       .  S
C517       O1518   1.277       .  A
C517        C709   1.459       .  S
C518       O1517   1.282       .  A
C518        C721   1.458       .  S
O519       Ni527   1.913       .  S
O519        C529   1.281       .  A
O520       Ni527   1.921       .  S
O520        C530   1.283       .  A
O521       Ni527   1.910       .  S
O521        C531   1.276       .  A
O522       Ni527   1.906       .  S
O522        C532   1.282       .  A
O523       Ni528   1.913       .  S
O523       C1540   1.277       .  A
O524       Ni528   1.909   1_655  S
O524       C1539   1.282       .  A
O525       Ni528   1.919       .  S
O525       C1538   1.282   1_455  A
O526       Ni528   1.924       .  S
O526       C1537   1.283       .  A
Ni527     Ni1536   2.392       .  S
Ni528     Ni1535   2.392   1_455  S
C529       O1534   1.283       .  A
C529        C697   1.480       .  S
C530       O1533   1.282       .  A
C530        C685   1.483       .  S
C531       O1532   1.282       .  A
C531        C724   1.457       .  S
C532       O1531   1.277       .  A
C532        C712   1.459       .  S
O533       Ni539   1.923   1_545  S
O534       Ni557   1.910       .  S
O534        C795   1.270       .  A
O535        H558   0.966       .  S
O535       Ni791   1.901   1_554  S
O535      Ni1817   1.895   1_554  S
C536        O553   1.277       .  A
C536       O1553   1.278       .  A
C536        C748   1.472       .  S
O537       Ni556   1.920       .  S
O538       Ni556   1.910       .  S
O538        C540   1.267       .  A
Ni539       O542   1.915       .  S
Ni539       O544   1.917       .  S
Ni539       O787   1.901       .  S
C540       O1558   1.278   1_455  A
C540       C1076   1.489   1_455  S
O541       Ni557   1.923       .  S
O541        C547   1.280   1_455  A
O542       C1555   1.279       .  A
C543        O786   1.270   1_554  A
C543        C664   1.483       .  S
O544        C546   1.269       .  A
O545       Ni556   1.924       .  S
O545       C1544   1.278       .  A
C546       O1560   1.279       .  A
C546       C1070   1.492   1_565  S
C547       O1550   1.279       .  A
C547        C736   1.481       .  S
H548        O549   0.967       .  S
O549      Ni1811   1.900   1_455  S
O549       Ni808   1.910       .  S
O550       Ni551   1.951       .  S
O550       C1548   1.278       .  A
Ni551       O555   1.907       .  S
Ni551       O553   1.916       .  S
Ni551      O1809   1.899   1_554  S
O552       Ni557   1.950       .  S
O552       C1554   1.279   1_455  A
C554        O807   1.269       .  A
C554        C673   1.484       .  S
O555        C806   1.269   1_554  A
Ni556       O801   1.910   1_554  S
Ni557      O1795   1.895   1_455  S
O559       Ni565   1.928       .  S
O560       Ni583   1.912       .  S
O560        C569   1.272       .  A
O561        H584   0.966       .  S
O561       Ni565   1.909       .  S
O561      Ni1591   1.902       .  S
C562        O579   1.282       .  A
C562       O1579   1.279       .  A
C562        C700   1.482       .  S
O563       Ni582   1.929       .  S
O564       Ni582   1.920       .  S
O564        C566   1.270       .  A
Ni565       O568   1.928       .  S
Ni565       O570   1.917       .  S
C566       O1584   1.279   1_455  A
C566       C1050   1.492   1_455  S
O567       Ni583   1.924       .  S
O567        C573   1.279   1_455  A
O568       C1581   1.279       .  A
C569        C640   1.485       .  S
O570        C572   1.269       .  A
O571       Ni582   1.920       .  S
O571       C1570   1.279       .  A
C572       O1586   1.278       .  A
C572       C1044   1.489   1_565  S
C573       O1576   1.279       .  A
C573        C688   1.485       .  S
H574        O575   0.967       .  S
O575      Ni1585   1.895   1_455  S
O575       Ni582   1.901       .  S
O576       Ni577   1.948       .  S
O576       C1574   1.279       .  A
Ni577       O581   1.915       .  S
Ni577       O579   1.928       .  S
Ni577      O1583   1.895       .  S
O578       Ni583   1.947       .  S
O578       C1580   1.278   1_455  A
C580        O581   1.272       .  A
C580        C649   1.485       .  S
Ni583      O1569   1.902   1_455  S
O585       Ni845   1.903   1_545  S
O585        C595   1.281       .  A
O586       Ni593   1.916   1_554  S
O586        C596   1.277       .  A
O587       Ni593   1.912       .  S
O587        C597   1.280   1_556  A
O588       Ni593   1.914       .  S
O588        C850   1.281   1_565  A
O589       Ni594   1.914       .  S
O590       Ni594   1.915       .  S
O591       Ni846   1.906       .  S
O592       Ni594   1.917       .  S
Ni593       O837   1.903   1_565  S
Ni594       O843   1.906       .  S
C595        C613   1.458       .  S
C596        C625   1.459       .  S
C597        C661   1.474       .  S
C598        O840   1.281   1_545  A
O599       Ni607   1.919       .  S
O599        C609   1.278       .  A
O600       Ni607   1.903   1_545  S
O600        C610   1.282       .  A
O601       Ni607   1.918       .  S
O601        C611   1.282       .  A
O602       Ni607   1.916       .  S
O602        C612   1.281   1_565  A
O603       Ni608   1.922       .  S
O604       Ni608   1.920       .  S
O605       Ni608   1.913       .  S
O606       Ni608   1.898       .  S
C609        C628   1.458       .  S
C610        C616   1.457       .  S
C611        C637   1.482       .  S
C613        C618   1.406       .  A
C614        C615   1.397       .  A
C614        H619   1.084       .  S
C615        O620   1.371       .  S
C616        C617   1.401       .  A
C617        C618   1.398       .  A
C617        H621   1.084       .  S
C618        O622   1.373       .  S
O620        H624   0.991       .  S
O622        H623   0.992       .  S
C625        C630   1.406       .  A
C626        C627   1.397       .  A
C626        H631   1.084       .  S
C627        O632   1.372       .  S
C628        C629   1.401       .  A
C629        C630   1.398       .  A
C629        H633   1.084       .  S
C630        O634   1.373       .  S
O632        H636   0.991       .  S
O634        H635   0.992       .  S
C637        C642   1.411       .  A
C638        C639   1.401       .  A
C638        H643   1.084       .  S
C639        O644   1.370       .  S
C640        C641   1.406       .  A
C641        C642   1.400       .  A
C641        H645   1.084       .  S
C642        O646   1.372       .  S
O644        H648   0.992       .  S
O646        H647   0.992   1_565  S
C649        C650   1.407       .  A
C650        C651   1.400       .  A
C650        H655   1.084       .  S
C651        C652   1.409       .  A
C651        O656   1.372       .  S
C653        C654   1.402       .  A
C653        H657   1.084       .  S
C654        O658   1.372       .  S
O656        H660   0.992       .  S
O658        H659   0.992       .  S
C661        C918   1.410   1_554  A
C662        C663   1.394       .  A
C662        H667   1.084       .  S
C663        O668   1.370       .  S
C664        C917   1.406   1_554  A
C665        C916   1.406       .  A
C665        C666   1.401       .  A
C665        H669   1.083       .  S
C666        C913   1.409       .  A
C666        O670   1.371       .  S
O668        H672   0.991       .  S
O670        H671   0.992       .  S
C673        C674   1.406       .  A
C673        C930   1.413       .  A
C674        C675   1.396       .  A
C674        H679   1.083       .  S
C675        C676   1.409       .  A
C675        O680   1.372       .  S
C677        H681   1.084       .  S
C678        C925   1.413   1_554  A
O680        H684   0.992       .  S
O682        H683   0.992       .  S
C685       C1694   1.406       .  A
C685        C690   1.410       .  A
C686       C1693   1.406   1_455  A
C686        C687   1.403       .  A
C686        H691   1.084       .  S
C687        C688   1.411   1_455  A
C687        O692   1.372       .  S
C688       C1697   1.406       .  A
C689       C1696   1.406       .  A
C689        C690   1.400       .  A
C689        H693   1.084       .  S
C690        O694   1.372       .  S
O692        H696   0.992       .  S
O694        H695   0.992       .  S
C697        C698   1.406       .  A
C697       C1710   1.408       .  A
C698        C699   1.400       .  A
C698        H703   1.084       .  S
C699        C700   1.410       .  A
C699        O704   1.372       .  S
C700       C1709   1.407       .  A
C701       C1708   1.407       .  A
C701        C702   1.400       .  A
C701        H705   1.084       .  S
C702       C1705   1.408       .  A
C702        O706   1.372       .  S
O704        H708   0.992       .  S
O706        H707   0.992       .  S
C709       C1718   1.402       .  A
C709        C714   1.405       .  A
C710       C1717   1.402       .  A
C710        C711   1.399       .  A
C710        H715   1.084       .  S
C711       C1720   1.405       .  A
C711        O716   1.373       .  S
C712       C1719   1.405       .  A
C712        C713   1.402       .  A
C713        C714   1.397       .  A
C713        H717   1.085       .  S
C714        O718   1.371       .  S
O716        H720   0.992       .  S
O718        H719   0.991       .  S
C721        C722   1.401       .  A
C721       C1734   1.406       .  A
C722        C723   1.396       .  A
C722        H727   1.084       .  S
C723        C724   1.406       .  A
C723        O728   1.372       .  S
C724       C1733   1.400       .  A
C725       C1732   1.400       .  A
C725        C726   1.398       .  A
C725        H729   1.084       .  S
C726       C1729   1.406       .  A
C726        O730   1.373       .  S
O728        H732   0.991       .  S
O730        H731   0.992       .  S
C733        C986   1.406   1_655  A
C733       C1746   1.411       .  A
C734        C985   1.406   1_454  A
C734        C735   1.401       .  A
C734        H739   1.083       .  S
C735        C988   1.410   1_454  A
C735        O740   1.372       .  S
C736        C987   1.410   1_655  A
C736       C1745   1.405       .  A
C737       C1744   1.405       .  A
C737        C738   1.394       .  A
C737        H741   1.084       .  S
C738       C1741   1.411       .  A
C738        O742   1.372       .  S
O740        H744   0.992       .  S
O742        H743   0.992       .  S
C745       C1523   1.484       .  S
C745       C2006   1.407       .  A
C745        C750   1.414   1_554  A
C746       C2005   1.407   1_455  A
C746        C747   1.398       .  A
C746        H751   1.083       .  S
C747       C2008   1.407       .  A
C747        O752   1.372       .  S
C748       C2007   1.407       .  A
C748        C749   1.401   1_554  A
C749        C750   1.399       .  A
C749        H753   1.084       .  S
C750        O754   1.371       .  S
O752        H756   0.992       .  S
O754        H755   0.992       .  S
O757       Ni765   1.916       .  S
O757       C1775   1.282       .  A
O758       C1776   1.280       .  A
O759        C769   1.281       .  A
O760       Ni765   1.914       .  S
O760        C770   1.276       .  A
O761       C1778   1.282       .  A
O762       Ni766   1.914   1_556  S
O762       C1777   1.277       .  A
O763       Ni766   1.917       .  S
O763        C768   1.282   1_454  A
O764        C767   1.281   1_455  A
Ni765     Ni1522   2.391       .  S
Ni766     Ni1521   2.391   1_454  S
C767       O1765   1.282       .  A
C767       C2005   1.484       .  S
C768       O1766   1.280       .  A
C768        C985   1.481       .  S
C769       O1770   1.277       .  A
C769        C961   1.459       .  S
C770       O1769   1.282       .  A
C770        C973   1.458       .  S
O771       Ni779   1.912       .  S
O771        C781   1.280       .  A
O772       Ni779   1.920       .  S
O772        C782   1.282       .  A
O773       Ni779   1.910       .  S
O773        C783   1.276       .  A
O774       Ni779   1.906       .  S
O774        C784   1.282       .  A
O775       Ni780   1.913       .  S
O775       C1792   1.277       .  A
O776       Ni780   1.909   1_655  S
O776       C1791   1.282       .  A
O777       Ni780   1.919       .  S
O777       C1790   1.282   1_455  A
O778       Ni780   1.924       .  S
O778       C1789   1.283       .  A
Ni779     Ni1788   2.392       .  S
Ni780     Ni1787   2.392   1_455  S
C781       O1786   1.283       .  A
C781        C949   1.479       .  S
C782       O1785   1.282       .  A
C782        C937   1.483       .  S
C783       O1784   1.282       .  A
C783        C976   1.458       .  S
C784       O1783   1.277       .  A
C784        C964   1.459       .  S
O785       Ni791   1.923   1_545  S
O786       Ni809   1.911       .  S
O787        H810   0.966       .  S
O787      Ni1565   1.895       .  S
C788        O805   1.276       .  A
C788       O1805   1.278       .  A
C788       C1000   1.472       .  S
O789       Ni808   1.920       .  S
O790       Ni808   1.910       .  S
O790        C792   1.267       .  A
Ni791       O794   1.915       .  S
Ni791       O796   1.917       .  S
C792       O1810   1.278   1_455  A
C792       C1328   1.489   1_455  S
O793       Ni809   1.923       .  S
O793        C799   1.280   1_455  A
O794       C1807   1.279       .  A
C795        C916   1.483       .  S
O796        C798   1.269       .  A
O797       Ni808   1.923       .  S
O797       C1796   1.278       .  A
C798       O1812   1.278       .  A
C798       C1322   1.492   1_565  S
C799       O1802   1.279       .  A
C799        C988   1.481       .  S
H800        O801   0.967       .  S
O801      Ni1559   1.899   1_456  S
O802       Ni803   1.951       .  S
O802       C1800   1.278       .  A
Ni803       O807   1.907       .  S
Ni803       O805   1.915       .  S
Ni803      O1557   1.900       .  S
O804       Ni809   1.950       .  S
O804       C1806   1.278   1_455  A
C806        C925   1.484       .  S
Ni809      O1543   1.895   1_456  S
O811       Ni817   1.928       .  S
O812       Ni835   1.912       .  S
O812        C821   1.272       .  A
O813        H836   0.966       .  S
O813       Ni817   1.908       .  S
O813      Ni1843   1.902       .  S
C814        O831   1.282       .  A
C814       O1831   1.279       .  A
C814        C952   1.482       .  S
O815       Ni834   1.929       .  S
O816       Ni834   1.920       .  S
O816        C818   1.270       .  A
Ni817       O820   1.928       .  S
Ni817       O822   1.918       .  S
C818       O1836   1.278   1_455  A
C818       C1302   1.492   1_455  S
O819       Ni835   1.924       .  S
O819        C825   1.279   1_455  A
O820       C1833   1.279       .  A
C821        C892   1.485       .  S
O822        C824   1.269       .  A
O823       Ni834   1.920       .  S
O823       C1822   1.279       .  A
C824       O1838   1.278       .  A
C824       C1296   1.489   1_565  S
C825       O1828   1.279       .  A
C825        C940   1.485       .  S
H826        O827   0.967       .  S
O827      Ni1837   1.895   1_455  S
O827       Ni834   1.901       .  S
O828       Ni829   1.947       .  S
O828       C1826   1.278       .  A
Ni829       O833   1.914       .  S
Ni829       O831   1.928       .  S
Ni829      O1835   1.895       .  S
O830       Ni835   1.946       .  S
O830       C1832   1.278   1_455  A
C832        O833   1.271       .  A
C832        C901   1.484       .  S
Ni835      O1821   1.902   1_455  S
O837        C847   1.281       .  A
O838       Ni845   1.916       .  S
O838        C848   1.277       .  A
O839       Ni845   1.912       .  S
O839        C849   1.280       .  A
O840       Ni845   1.914       .  S
O841       Ni846   1.914       .  S
O842       Ni846   1.915       .  S
O844       Ni846   1.916   1_556  S
C847        C865   1.458       .  S
C848        C877   1.459       .  S
C849        C913   1.474       .  S
O851       Ni859   1.919       .  S
O851        C861   1.278       .  A
O852       Ni859   1.904   1_545  S
O852        C862   1.282       .  A
O853       Ni859   1.918       .  S
O853        C863   1.282       .  A
O854       Ni859   1.916       .  S
O854        C864   1.281   1_565  A
O855       Ni860   1.922       .  S
O856       Ni860   1.920       .  S
O857       Ni860   1.913       .  S
O858       Ni860   1.898       .  S
C861        C880   1.458       .  S
C862        C868   1.457       .  S
C863        C889   1.482       .  S
C865        C870   1.406       .  A
C866        C867   1.397       .  A
C866        H871   1.084       .  S
C867        O872   1.371       .  S
C868        C869   1.401       .  A
C869        C870   1.398       .  A
C869        H873   1.084       .  S
C870        O874   1.373       .  S
O872        H876   0.991       .  S
O874        H875   0.992       .  S
C877        C882   1.406       .  A
C878        C879   1.398       .  A
C878        H883   1.084       .  S
C879        O884   1.372       .  S
C880        C881   1.401       .  A
C881        C882   1.398       .  A
C881        H885   1.084       .  S
C882        O886   1.373       .  S
O884        H888   0.991       .  S
O886        H887   0.992       .  S
C889        C894   1.411       .  A
C890        C891   1.401       .  A
C890        H895   1.084       .  S
C891        O896   1.370       .  S
C892        C893   1.406       .  A
C893        C894   1.400       .  A
C893        H897   1.084       .  S
C894        O898   1.372       .  S
O896        H900   0.992       .  S
O898        H899   0.992   1_565  S
C901        C902   1.407       .  A
C902        C903   1.400       .  A
C902        H907   1.084       .  S
C903        C904   1.409       .  A
C903        O908   1.372       .  S
C905        C906   1.402       .  A
C905        H909   1.084       .  S
C906        O910   1.372       .  S
O908        H912   0.992       .  S
O910        H911   0.992       .  S
C914        C915   1.394       .  A
C914        H919   1.084       .  S
C915        O920   1.370       .  S
C917        C918   1.401       .  A
C917        H921   1.083       .  S
C918        O922   1.371       .  S
O920        H924   0.991       .  S
O922        H923   0.992       .  S
C925        C926   1.407       .  A
C926        C927   1.396       .  A
C926        H931   1.083       .  S
C927        C928   1.409       .  A
C927        O932   1.372       .  S
C929        H933   1.084       .  S
O932        H936   0.992       .  S
O934        H935   0.992       .  S
C937       C1946   1.406       .  A
C937        C942   1.410       .  A
C938       C1945   1.406   1_455  A
C938        C939   1.403       .  A
C938        H943   1.084       .  S
C939        C940   1.411   1_455  A
C939        O944   1.372       .  S
C940       C1949   1.406       .  A
C941       C1948   1.406       .  A
C941        C942   1.400       .  A
C941        H945   1.084       .  S
C942        O946   1.372       .  S
O944        H948   0.992       .  S
O946        H947   0.992       .  S
C949        C950   1.406       .  A
C949       C1962   1.408       .  A
C950        C951   1.400       .  A
C950        H955   1.084       .  S
C951        C952   1.409       .  A
C951        O956   1.372       .  S
C952       C1961   1.407       .  A
C953       C1960   1.407       .  A
C953        C954   1.400       .  A
C953        H957   1.084       .  S
C954       C1957   1.408       .  A
C954        O958   1.372       .  S
O956        H960   0.992       .  S
O958        H959   0.992       .  S
C961       C1970   1.402       .  A
C961        C966   1.405       .  A
C962       C1969   1.402       .  A
C962        C963   1.398       .  A
C962        H967   1.084       .  S
C963       C1972   1.405       .  A
C963        O968   1.373       .  S
C964       C1971   1.405       .  A
C964        C965   1.402       .  A
C965        C966   1.397       .  A
C965        H969   1.085       .  S
C966        O970   1.371       .  S
O968        H972   0.992       .  S
O970        H971   0.991       .  S
C973        C974   1.401       .  A
C973       C1986   1.406       .  A
C974        C975   1.396       .  A
C974        H979   1.084       .  S
C975        C976   1.406       .  A
C975        O980   1.372       .  S
C976       C1985   1.400       .  A
C977       C1984   1.400       .  A
C977        C978   1.398       .  A
C977        H981   1.084       .  S
C978       C1981   1.406       .  A
C978        O982   1.373       .  S
O980        H984   0.991       .  S
O982        H983   0.992       .  S
C985       C1998   1.411       .  A
C986        C987   1.401       .  A
C986        H991   1.083       .  S
C987        O992   1.372       .  S
C988       C1997   1.405       .  A
C989       C1996   1.405       .  A
C989        C990   1.394       .  A
C989        H993   1.084       .  S
C990       C1993   1.411       .  A
C990        O994   1.372       .  S
O992        H996   0.992       .  S
O994        H995   0.992       .  S
C997       C1775   1.484       .  S
C997       C1754   1.407       .  A
C997       C1002   1.414       .  A
C998       C1753   1.407   1_455  A
C998        C999   1.398       .  A
C998       H1003   1.083       .  S
C999       C1756   1.407       .  A
C999       O1004   1.372       .  S
C1000      C1755   1.407       .  A
C1000      C1001   1.401       .  A
C1001      C1002   1.399       .  A
C1001      H1005   1.084       .  S
C1002      O1006   1.371       .  S
O1004      H1008   0.992       .  S
O1006      H1007   0.992       .  S
O1009     Ni1017   1.916       .  S
O1010     Ni1269   1.908       .  S
O1011     Ni1269   1.906   1_455  S
O1011      C1021   1.281       .  A
O1012     Ni1017   1.913   1_554  S
O1012      C1022   1.276       .  A
O1013     Ni1270   1.903       .  S
O1014     Ni1018   1.914       .  S
O1015     Ni1018   1.918       .  S
O1015      C1020   1.282       .  A
O1016     Ni1270   1.912       .  S
O1016      C1019   1.281       .  A
Ni1017     O1262   1.908       .  S
Ni1017     O1263   1.906   1_655  S
Ni1018     O1265   1.903       .  S
Ni1018     O1268   1.912       .  S
C1020      C1237   1.481       .  S
C1021      C1213   1.459       .  S
C1022      C1225   1.458       .  S
O1023     Ni1031   1.913       .  S
O1023      C1033   1.281   1_655  A
O1024     Ni1031   1.921       .  S
O1024      C1034   1.283       .  A
O1025     Ni1031   1.910       .  S
O1025      C1035   1.276       .  A
O1026     Ni1031   1.906   1_455  S
O1026      C1036   1.282       .  A
O1027     Ni1032   1.913       .  S
O1028     Ni1032   1.909       .  S
O1029     Ni1032   1.919       .  S
O1030     Ni1032   1.924       .  S
C1033      C1201   1.480       .  S
C1034      C1189   1.483       .  S
C1035      C1228   1.457       .  S
C1036      C1216   1.459       .  S
O1037     Ni1043   1.923       .  S
O1037      C1562   1.272       .  A
O1038     Ni1061   1.910       .  S
O1038      C1299   1.270       .  A
O1039      H1062   0.966       .  S
O1039     Ni1295   1.901   1_554  S
O1039     Ni1559   1.912       .  S
C1040      O1057   1.277   1_455  A
C1040      C1252   1.472       .  S
O1041     Ni1060   1.920       .  S
O1041      C1551   1.269   1_545  A
O1042     Ni1060   1.910       .  S
O1042      C1044   1.267       .  A
Ni1043     O1046   1.915       .  S
Ni1043     O1048   1.917       .  S
Ni1043     O1291   1.901       .  S
O1045     Ni1061   1.923       .  S
O1045      C1051   1.280       .  A
C1047      O1290   1.270   1_554  A
C1047      O1545   1.269       .  A
C1047      C1168   1.483       .  S
O1048      C1050   1.269       .  A
O1049     Ni1060   1.924       .  S
C1051      C1240   1.481       .  S
H1052      O1053   0.967       .  S
O1053     Ni1565   1.920   1_545  S
O1053     Ni1312   1.910       .  S
O1054     Ni1055   1.951       .  S
Ni1055     O1059   1.907       .  S
Ni1055     O1057   1.916       .  S
Ni1055     O1543   1.912   1_545  S
O1056     Ni1061   1.950       .  S
C1058      O1541   1.272       .  A
C1058      O1311   1.269       .  A
C1058      C1177   1.484       .  S
O1059      C1310   1.269   1_554  A
Ni1060     O1305   1.910   1_554  S
Ni1061     O1557   1.920       .  S
O1063     Ni1069   1.928       .  S
O1063      C1588   1.272       .  A
O1064     Ni1087   1.912       .  S
O1064      C1073   1.272       .  A
O1065      H1088   0.966       .  S
O1065     Ni1069   1.909       .  S
O1065     Ni1585   1.922       .  S
C1066      O1083   1.282   1_455  A
C1066      C1204   1.482       .  S
O1067     Ni1086   1.929   1_565  S
O1067      C1577   1.273       .  A
O1068     Ni1086   1.920       .  S
O1068      C1070   1.270       .  A
Ni1069     O1072   1.928       .  S
Ni1069     O1074   1.917       .  S
O1071     Ni1087   1.924       .  S
O1071      C1077   1.279       .  A
C1073      O1571   1.273       .  A
C1073      C1144   1.485       .  S
O1074      C1076   1.269       .  A
O1075     Ni1086   1.920       .  S
C1077      C1192   1.485       .  S
H1078      O1079   0.967       .  S
O1079     Ni1591   1.915   1_545  S
O1079     Ni1086   1.901       .  S
O1080     Ni1081   1.948       .  S
Ni1081     O1085   1.915       .  S
Ni1081     O1083   1.928       .  S
Ni1081     O1569   1.922   1_545  S
O1082     Ni1087   1.947       .  S
C1084      O1567   1.272   1_545  A
C1084      O1085   1.272       .  A
C1084      C1153   1.485       .  S
Ni1087     O1583   1.915       .  S
O1089     Ni1349   1.903       .  S
O1089      C1099   1.281       .  A
O1090     Ni1097   1.916   1_554  S
O1090      C1100   1.277       .  A
O1091     Ni1097   1.912       .  S
O1091      C1101   1.280   1_556  A
O1092     Ni1097   1.914       .  S
O1092      C1354   1.281       .  A
O1093     Ni1098   1.914       .  S
O1093      C1606   1.281       .  A
O1094     Ni1098   1.915       .  S
O1094      C1857   1.282   1_545  A
O1095     Ni1350   1.906   1_565  S
O1095      C1604   1.281       .  A
O1096     Ni1098   1.917       .  S
O1096      C1603   1.277       .  A
Ni1097     O1341   1.903       .  S
Ni1097    Ni1854   2.393   1_556  S
Ni1098     O1347   1.906   1_545  S
Ni1098    Ni1853   2.393   1_545  S
C1099      O1600   1.277       .  A
C1099      C1117   1.458       .  S
C1100      O1599   1.281       .  A
C1100      C1129   1.459       .  S
C1101      O1850   1.282       .  A
C1101      C1165   1.474       .  S
C1102      O1344   1.281       .  A
C1102      O1597   1.281       .  A
C1102      C1684   1.478       .  S
O1103     Ni1111   1.919       .  S
O1103      C1113   1.278       .  A
O1104     Ni1111   1.903       .  S
O1104      C1114   1.282       .  A
O1105     Ni1111   1.918       .  S
O1105      C1115   1.282       .  A
O1106     Ni1111   1.916       .  S
O1106      C1116   1.281       .  A
O1107     Ni1112   1.922       .  S
O1107      C1620   1.283       .  A
O1108     Ni1112   1.920       .  S
O1108      C1619   1.283   1_545  A
O1109     Ni1112   1.913       .  S
O1109      C1618   1.276       .  A
O1110     Ni1112   1.898   1_565  S
O1110      C1617   1.280       .  A
Ni1111    Ni1616   2.392       .  S
Ni1112    Ni1615   2.392   1_545  S
C1113      O1614   1.280       .  A
C1113      C1132   1.458       .  S
C1114      O1613   1.276       .  A
C1114      C1120   1.457       .  S
C1115      O1612   1.283       .  A
C1115      C1141   1.482       .  S
C1116      O1611   1.283       .  A
C1116      C1660   1.482       .  S
C1117      C1622   1.401       .  A
C1117      C1122   1.406       .  A
C1118      C1621   1.401       .  A
C1118      C1119   1.397       .  A
C1118      H1123   1.084       .  S
C1119      C1624   1.404       .  A
C1119      O1124   1.371       .  S
C1120      C1623   1.404       .  A
C1120      C1121   1.401       .  A
C1121      C1122   1.398       .  A
C1121      H1125   1.084       .  S
C1122      O1126   1.373       .  S
O1124      H1128   0.991       .  S
O1126      H1127   0.992       .  S
C1129      C1634   1.401       .  A
C1129      C1134   1.406       .  A
C1130      C1633   1.401       .  A
C1130      C1131   1.397       .  A
C1130      H1135   1.084       .  S
C1131      C1636   1.406       .  A
C1131      O1136   1.372       .  S
C1132      C1635   1.406       .  A
C1132      C1133   1.401       .  A
C1133      C1134   1.398       .  A
C1133      H1137   1.084       .  S
C1134      O1138   1.373       .  S
O1136      H1140   0.991       .  S
O1138      H1139   0.992       .  S
C1141      C1646   1.405       .  A
C1141      C1146   1.411       .  A
C1142      C1645   1.405       .  A
C1142      C1143   1.401       .  A
C1142      H1147   1.084       .  S
C1143      C1648   1.411       .  A
C1143      O1148   1.370       .  S
C1144      C1647   1.411       .  A
C1144      C1145   1.406       .  A
C1145      C1146   1.400       .  A
C1145      H1149   1.084       .  S
C1146      O1150   1.372       .  S
O1148      H1152   0.992       .  S
O1150      H1151   0.992       .  S
C1153      C1154   1.407       .  A
C1153      C1662   1.411       .  A
C1154      C1155   1.400       .  A
C1154      H1159   1.084       .  S
C1155      C1156   1.409       .  A
C1155      O1160   1.372       .  S
C1156      C1620   1.482       .  S
C1156      C1661   1.406       .  A
C1157      C1660   1.406       .  A
C1157      C1158   1.402       .  A
C1157      H1161   1.084       .  S
C1158      C1657   1.411       .  A
C1158      O1162   1.372       .  S
O1160      H1164   0.992   1_545  S
O1162      H1163   0.992       .  S
C1165      C1670   1.400       .  A
C1165      C1422   1.410   1_554  A
C1166      C1669   1.400   1_545  A
C1166      C1167   1.394       .  A
C1166      H1171   1.084       .  S
C1167      C1672   1.414   1_545  A
C1167      O1172   1.370       .  S
C1168      C1671   1.414       .  A
C1168      C1421   1.406   1_554  A
C1169      C1420   1.406       .  A
C1169      C1170   1.401       .  A
C1169      H1173   1.083       .  S
C1170      C1417   1.409       .  A
C1170      O1174   1.371       .  S
O1172      H1176   0.991   1_545  S
O1174      H1175   0.992       .  S
C1177      C1178   1.406       .  A
C1177      C1434   1.413       .  A
C1178      C1179   1.396   1_545  A
C1178      H1183   1.083   1_545  S
C1179      C1180   1.409   1_565  A
C1179      O1184   1.372       .  S
C1180      C1606   1.478       .  S
C1180      C1937   1.405       .  A
C1181      C1936   1.405   1_554  A
C1181      C1686   1.401       .  A
C1181      H1185   1.084       .  S
C1182      C1429   1.413   1_554  A
C1182      C1685   1.401       .  A
C1182      O1690   1.372       .  S
O1184      H1188   0.992   1_565  S
O1186      C1686   1.372       .  S
O1186      H1187   0.992       .  S
C1189      C1194   1.410       .  A
C1190      C1191   1.403       .  A
C1190      H1195   1.084       .  S
C1191      C1192   1.411       .  A
C1191      O1196   1.372       .  S
C1193      C1194   1.400       .  A
C1193      H1197   1.084       .  S
C1194      O1198   1.372       .  S
O1196      H1200   0.992       .  S
O1198      H1199   0.992       .  S
C1201      C1202   1.406   1_455  A
C1202      C1203   1.400       .  A
C1202      H1207   1.084       .  S
C1203      C1204   1.410   1_655  A
C1203      O1208   1.372       .  S
C1205      C1206   1.400       .  A
C1205      H1209   1.084       .  S
C1206      O1210   1.372       .  S
O1208      H1212   0.992       .  S
O1210      H1211   0.992       .  S
C1213      C1218   1.405       .  A
C1214      C1215   1.399       .  A
C1214      H1219   1.084       .  S
C1215      O1220   1.373       .  S
C1216      C1217   1.402       .  A
C1217      C1218   1.397       .  A
C1217      H1221   1.085       .  S
C1218      O1222   1.371       .  S
O1220      H1224   0.992       .  S
O1222      H1223   0.991       .  S
C1225      C1226   1.401       .  A
C1226      C1227   1.396       .  A
C1226      H1231   1.084       .  S
C1227      C1228   1.406       .  A
C1227      O1232   1.372       .  S
C1229      C1230   1.398       .  A
C1229      H1233   1.084       .  S
C1230      O1234   1.373       .  S
O1232      H1236   0.991       .  S
O1234      H1235   0.992       .  S
C1237      C1490   1.406       .  A
C1238      C1489   1.406   1_554  A
C1238      C1239   1.401       .  A
C1238      H1243   1.083       .  S
C1239      C1492   1.410   1_554  A
C1239      O1244   1.372       .  S
C1240      C1491   1.410       .  A
C1241      C1242   1.394       .  A
C1241      H1245   1.084       .  S
C1242      O1246   1.372       .  S
O1244      H1248   0.992       .  S
O1246      H1247   0.992       .  S
C1249      C1254   1.414   1_554  A
C1250      C1251   1.398       .  A
C1250      H1255   1.083       .  S
C1251      O1256   1.372       .  S
C1252      C1253   1.401   1_454  A
C1253      C1254   1.399       .  A
C1253      H1257   1.084       .  S
C1254      O1258   1.371       .  S
O1256      H1260   0.992       .  S
O1258      H1259   0.992       .  S
O1261     Ni1269   1.916       .  S
O1263      C1273   1.281       .  A
O1264     Ni1269   1.914       .  S
O1264      C1274   1.276       .  A
O1266     Ni1270   1.914   1_556  S
O1267     Ni1270   1.917       .  S
O1267      C1272   1.282   1_554  A
O1268      C1271   1.281       .  A
C1272      C1489   1.481       .  S
C1273      C1465   1.459       .  S
C1274      C1477   1.458       .  S
O1275     Ni1283   1.912       .  S
O1275      C1285   1.280   1_655  A
O1276     Ni1283   1.920       .  S
O1276      C1286   1.282       .  A
O1277     Ni1283   1.910       .  S
O1277      C1287   1.276       .  A
O1278     Ni1283   1.906   1_455  S
O1278      C1288   1.282       .  A
O1279     Ni1284   1.913       .  S
O1280     Ni1284   1.909       .  S
O1281     Ni1284   1.919       .  S
O1282     Ni1284   1.924       .  S
C1285      C1453   1.479       .  S
C1286      C1441   1.483       .  S
C1287      C1480   1.458       .  S
C1288      C1468   1.459       .  S
O1289     Ni1295   1.923       .  S
O1289      C1814   1.272       .  A
O1290     Ni1313   1.911       .  S
O1291      H1314   0.966       .  S
O1291     Ni1811   1.912       .  S
C1292      O1309   1.276   1_455  A
C1292      C1504   1.472       .  S
O1293     Ni1312   1.920       .  S
O1293      C1803   1.270   1_545  A
O1294     Ni1312   1.910       .  S
O1294      C1296   1.267       .  A
Ni1295     O1298   1.915       .  S
Ni1295     O1300   1.917       .  S
O1297     Ni1313   1.923       .  S
O1297      C1303   1.280       .  A
C1299      O1797   1.270       .  A
C1299      C1420   1.483       .  S
O1300      C1302   1.269       .  A
O1301     Ni1312   1.923       .  S
C1303      C1492   1.481       .  S
H1304      O1305   0.967       .  S
O1305     Ni1817   1.920   1_545  S
O1306     Ni1307   1.951       .  S
Ni1307     O1311   1.907       .  S
Ni1307     O1309   1.915       .  S
Ni1307     O1795   1.912   1_545  S
O1308     Ni1313   1.950       .  S
C1310      O1793   1.272       .  A
C1310      C1429   1.484       .  S
Ni1313     O1809   1.920       .  S
O1315     Ni1321   1.928       .  S
O1315      C1840   1.273       .  A
O1316     Ni1339   1.912       .  S
O1316      C1325   1.272       .  A
O1317      H1340   0.966       .  S
O1317     Ni1321   1.908       .  S
O1317     Ni1837   1.922       .  S
C1318      O1335   1.282   1_455  A
C1318      C1456   1.482       .  S
O1319     Ni1338   1.929   1_565  S
O1319      C1829   1.273       .  A
O1320     Ni1338   1.920       .  S
O1320      C1322   1.270       .  A
Ni1321     O1324   1.928       .  S
Ni1321     O1326   1.918       .  S
O1323     Ni1339   1.924       .  S
O1323      C1329   1.279       .  A
C1325      O1823   1.273       .  A
C1325      C1396   1.485       .  S
O1326      C1328   1.269       .  A
O1327     Ni1338   1.920       .  S
C1329      C1444   1.485       .  S
H1330      O1331   0.967       .  S
O1331     Ni1843   1.915   1_545  S
O1331     Ni1338   1.901       .  S
O1332     Ni1333   1.947       .  S
Ni1333     O1337   1.914       .  S
Ni1333     O1335   1.928       .  S
Ni1333     O1821   1.922   1_545  S
O1334     Ni1339   1.946       .  S
C1336      O1819   1.273   1_545  A
C1336      O1337   1.271       .  A
C1336      C1405   1.484       .  S
Ni1339     O1835   1.915       .  S
O1341      C1351   1.281       .  A
O1342     Ni1349   1.916       .  S
O1342      C1352   1.277       .  A
O1343     Ni1349   1.912       .  S
O1343      C1353   1.280       .  A
O1344     Ni1349   1.914       .  S
O1345     Ni1350   1.914       .  S
O1345      C1858   1.281   1_554  A
O1346     Ni1350   1.915       .  S
O1346      C1605   1.282   1_545  A
O1347      C1856   1.281       .  A
O1348     Ni1350   1.916   1_556  S
O1348      C1855   1.277       .  A
Ni1349    Ni1602   2.393       .  S
Ni1350    Ni1601   2.393   1_544  S
C1351      O1852   1.277       .  A
C1351      C1369   1.458       .  S
C1352      O1851   1.281       .  A
C1352      C1381   1.459       .  S
C1353      O1598   1.282       .  A
C1353      C1417   1.474       .  S
C1354      O1849   1.281   1_556  A
C1354      C1936   1.478       .  S
O1355     Ni1363   1.919       .  S
O1355      C1365   1.278       .  A
O1356     Ni1363   1.904       .  S
O1356      C1366   1.282       .  A
O1357     Ni1363   1.918       .  S
O1357      C1367   1.282       .  A
O1358     Ni1363   1.916       .  S
O1358      C1368   1.281       .  A
O1359     Ni1364   1.922       .  S
O1359      C1872   1.283       .  A
O1360     Ni1364   1.920       .  S
O1360      C1871   1.282   1_545  A
O1361     Ni1364   1.913       .  S
O1361      C1870   1.276       .  A
O1362     Ni1364   1.898   1_565  S
O1362      C1869   1.280       .  A
Ni1363    Ni1868   2.392       .  S
Ni1364    Ni1867   2.392   1_545  S
C1365      O1866   1.280       .  A
C1365      C1384   1.458       .  S
C1366      O1865   1.276       .  A
C1366      C1372   1.457       .  S
C1367      O1864   1.282       .  A
C1367      C1393   1.482       .  S
C1368      O1863   1.283       .  A
C1368      C1912   1.481       .  S
C1369      C1874   1.401       .  A
C1369      C1374   1.406       .  A
C1370      C1873   1.401       .  A
C1370      C1371   1.397       .  A
C1370      H1375   1.084       .  S
C1371      C1876   1.404       .  A
C1371      O1376   1.371       .  S
C1372      C1875   1.404       .  A
C1372      C1373   1.401       .  A
C1373      C1374   1.398       .  A
C1373      H1377   1.084       .  S
C1374      O1378   1.373       .  S
O1376      H1380   0.991       .  S
O1378      H1379   0.992       .  S
C1381      C1886   1.401       .  A
C1381      C1386   1.406       .  A
C1382      C1885   1.401       .  A
C1382      C1383   1.398       .  A
C1382      H1387   1.084       .  S
C1383      C1888   1.406       .  A
C1383      O1388   1.372       .  S
C1384      C1887   1.406       .  A
C1384      C1385   1.401       .  A
C1385      C1386   1.398       .  A
C1385      H1389   1.084       .  S
C1386      O1390   1.373       .  S
O1388      H1392   0.991       .  S
O1390      H1391   0.992       .  S
C1393      C1898   1.405       .  A
C1393      C1398   1.411       .  A
C1394      C1897   1.405       .  A
C1394      C1395   1.401       .  A
C1394      H1399   1.084       .  S
C1395      C1900   1.411       .  A
C1395      O1400   1.370       .  S
C1396      C1899   1.411       .  A
C1396      C1397   1.406       .  A
C1397      C1398   1.400       .  A
C1397      H1401   1.084       .  S
C1398      O1402   1.372       .  S
O1400      H1404   0.992       .  S
O1402      H1403   0.992       .  S
C1405      C1406   1.407       .  A
C1405      C1914   1.411       .  A
C1406      C1407   1.400       .  A
C1406      H1411   1.084       .  S
C1407      C1408   1.409       .  A
C1407      O1412   1.372       .  S
C1408      C1872   1.481       .  S
C1408      C1913   1.406       .  A
C1409      C1912   1.406       .  A
C1409      C1410   1.402       .  A
C1409      H1413   1.084       .  S
C1410      C1909   1.411       .  A
C1410      O1414   1.372       .  S
O1412      H1416   0.992   1_545  S
O1414      H1415   0.992       .  S
C1417      C1922   1.400       .  A
C1418      C1921   1.400   1_545  A
C1418      C1419   1.394   1_545  A
C1418      H1423   1.084       .  S
C1419      C1924   1.414       .  A
C1419      O1424   1.370   1_565  S
C1420      C1923   1.414       .  A
C1421      C1422   1.401       .  A
C1421      H1425   1.083       .  S
C1422      O1426   1.371       .  S
O1424      H1428   0.991   1_545  S
O1426      H1427   0.992       .  S
C1429      C1430   1.407       .  A
C1430      C1431   1.396   1_545  A
C1430      H1435   1.083   1_545  S
C1431      C1432   1.409   1_565  A
C1431      O1436   1.372       .  S
C1432      C1858   1.478       .  S
C1432      C1685   1.405   1_556  A
C1433      C1684   1.405       .  A
C1433      C1938   1.401       .  A
C1433      H1437   1.084       .  S
C1434      C1937   1.401       .  A
C1434      O1942   1.372       .  S
O1436      H1440   0.992   1_565  S
O1438      C1938   1.372       .  S
O1438      H1439   0.992       .  S
C1441      C1446   1.410       .  A
C1442      C1443   1.403       .  A
C1442      H1447   1.084       .  S
C1443      C1444   1.411       .  A
C1443      O1448   1.372       .  S
C1445      C1446   1.400       .  A
C1445      H1449   1.084       .  S
C1446      O1450   1.372       .  S
O1448      H1452   0.992       .  S
O1450      H1451   0.992       .  S
C1453      C1454   1.406   1_455  A
C1454      C1455   1.400       .  A
C1454      H1459   1.084       .  S
C1455      C1456   1.409   1_655  A
C1455      O1460   1.372       .  S
C1457      C1458   1.400       .  A
C1457      H1461   1.084       .  S
C1458      O1462   1.372       .  S
O1460      H1464   0.992       .  S
O1462      H1463   0.992       .  S
C1465      C1470   1.405       .  A
C1466      C1467   1.398       .  A
C1466      H1471   1.084       .  S
C1467      O1472   1.373       .  S
C1468      C1469   1.402       .  A
C1469      C1470   1.397       .  A
C1469      H1473   1.085       .  S
C1470      O1474   1.371       .  S
O1472      H1476   0.992       .  S
O1474      H1475   0.991       .  S
C1477      C1478   1.401       .  A
C1478      C1479   1.396       .  A
C1478      H1483   1.084       .  S
C1479      C1480   1.406       .  A
C1479      O1484   1.372       .  S
C1481      C1482   1.398       .  A
C1481      H1485   1.084       .  S
C1482      O1486   1.373       .  S
O1484      H1488   0.991       .  S
O1486      H1487   0.992       .  S
C1490      C1491   1.401       .  A
C1490      H1495   1.083       .  S
C1491      O1496   1.372       .  S
C1493      C1494   1.394       .  A
C1493      H1497   1.084       .  S
C1494      O1498   1.372       .  S
O1496      H1500   0.992       .  S
O1498      H1499   0.992       .  S
C1501      C1506   1.414       .  A
C1502      C1503   1.398       .  A
C1502      H1507   1.083       .  S
C1503      O1508   1.372       .  S
C1504      C1505   1.401   1_455  A
C1505      C1506   1.399       .  A
C1505      H1509   1.084       .  S
C1506      O1510   1.371       .  S
O1508      H1512   0.992       .  S
O1510      H1511   0.992       .  S
O1513     Ni1521   1.916       .  S
O1514     Ni1773   1.908       .  S
O1515     Ni1773   1.906   1_455  S
O1515      C1525   1.281       .  A
O1516     Ni1521   1.913   1_554  S
O1516      C1526   1.276       .  A
O1517     Ni1774   1.903       .  S
O1518     Ni1522   1.914       .  S
O1519     Ni1522   1.918       .  S
O1519      C1524   1.282       .  A
O1520     Ni1774   1.912       .  S
O1520      C1523   1.281       .  A
Ni1521     O1766   1.908       .  S
Ni1521     O1767   1.906   1_655  S
Ni1522     O1769   1.903       .  S
Ni1522     O1772   1.912       .  S
C1524      C1741   1.481       .  S
C1525      C1717   1.459       .  S
C1526      C1729   1.458       .  S
O1527     Ni1535   1.913       .  S
O1527      C1537   1.281   1_655  A
O1528     Ni1535   1.921       .  S
O1528      C1538   1.283       .  A
O1529     Ni1535   1.910       .  S
O1529      C1539   1.276       .  A
O1530     Ni1535   1.906   1_455  S
O1530      C1540   1.282       .  A
O1531     Ni1536   1.913       .  S
O1532     Ni1536   1.909       .  S
O1533     Ni1536   1.919       .  S
O1534     Ni1536   1.924       .  S
C1537      C1705   1.480       .  S
C1538      C1693   1.483       .  S
C1539      C1732   1.457       .  S
C1540      C1720   1.459       .  S
O1541     Ni1547   1.923   1_545  S
O1542     Ni1565   1.910       .  S
O1542      C1803   1.270       .  A
O1543      H1566   0.966       .  S
O1543     Ni1799   1.901   1_554  S
C1544      O1561   1.277   1_455  A
C1544      C1756   1.472       .  S
O1545     Ni1564   1.920       .  S
O1546     Ni1564   1.910       .  S
O1546      C1548   1.267       .  A
Ni1547     O1550   1.915       .  S
Ni1547     O1552   1.917       .  S
Ni1547     O1795   1.901       .  S
O1549     Ni1565   1.923       .  S
O1549      C1555   1.280       .  A
C1551      O1794   1.270   1_554  A
C1551      C1672   1.483       .  S
O1552      C1554   1.269       .  A
O1553     Ni1564   1.924       .  S
C1555      C1744   1.481       .  S
H1556      O1557   0.967       .  S
O1557     Ni1816   1.910       .  S
O1558     Ni1559   1.951       .  S
Ni1559     O1563   1.907       .  S
Ni1559     O1561   1.916       .  S
O1560     Ni1565   1.950       .  S
C1562      O1815   1.269       .  A
C1562      C1681   1.484       .  S
O1563      C1814   1.269   1_554  A
Ni1564     O1809   1.910   1_554  S
O1567     Ni1573   1.928       .  S
O1568     Ni1591   1.912       .  S
O1568      C1577   1.272       .  A
O1569      H1592   0.966       .  S
O1569     Ni1573   1.909       .  S
C1570      O1587   1.282   1_455  A
C1570      C1708   1.482       .  S
O1571     Ni1590   1.929       .  S
O1572     Ni1590   1.920       .  S
O1572      C1574   1.270       .  A
Ni1573     O1576   1.928       .  S
Ni1573     O1578   1.917       .  S
O1575     Ni1591   1.924       .  S
O1575      C1581   1.279       .  A
C1577      C1648   1.485       .  S
O1578      C1580   1.269       .  A
O1579     Ni1590   1.920       .  S
C1581      C1696   1.485       .  S
H1582      O1583   0.967       .  S
O1583     Ni1590   1.901       .  S
O1584     Ni1585   1.948       .  S
Ni1585     O1589   1.915       .  S
Ni1585     O1587   1.928       .  S
O1586     Ni1591   1.947       .  S
C1588      O1589   1.272       .  A
C1588      C1657   1.485       .  S
O1593     Ni1853   1.903   1_545  S
O1593      C1603   1.281       .  A
O1594     Ni1601   1.916   1_554  S
O1594      C1604   1.277       .  A
O1595     Ni1601   1.912       .  S
O1595      C1605   1.280   1_556  A
O1596     Ni1601   1.914       .  S
O1596      C1858   1.281   1_565  A
O1597     Ni1602   1.914       .  S
O1598     Ni1602   1.915       .  S
O1599     Ni1854   1.906       .  S
O1600     Ni1602   1.917       .  S
Ni1601     O1845   1.903   1_565  S
Ni1602     O1851   1.906       .  S
C1603      C1621   1.458       .  S
C1604      C1633   1.459       .  S
C1605      C1669   1.474       .  S
C1606      O1848   1.281   1_545  A
O1607     Ni1615   1.919       .  S
O1607      C1617   1.278       .  A
O1608     Ni1615   1.903   1_545  S
O1608      C1618   1.282       .  A
O1609     Ni1615   1.918       .  S
O1609      C1619   1.282       .  A
O1610     Ni1615   1.916       .  S
O1610      C1620   1.281   1_565  A
O1611     Ni1616   1.922       .  S
O1612     Ni1616   1.920       .  S
O1613     Ni1616   1.913       .  S
O1614     Ni1616   1.898       .  S
C1617      C1636   1.458       .  S
C1618      C1624   1.457       .  S
C1619      C1645   1.482       .  S
C1621      C1626   1.406       .  A
C1622      C1623   1.397       .  A
C1622      H1627   1.084       .  S
C1623      O1628   1.371       .  S
C1624      C1625   1.401       .  A
C1625      C1626   1.398       .  A
C1625      H1629   1.084       .  S
C1626      O1630   1.373       .  S
O1628      H1632   0.991       .  S
O1630      H1631   0.992       .  S
C1633      C1638   1.406       .  A
C1634      C1635   1.397       .  A
C1634      H1639   1.084       .  S
C1635      O1640   1.372       .  S
C1636      C1637   1.401       .  A
C1637      C1638   1.398       .  A
C1637      H1641   1.084       .  S
C1638      O1642   1.373       .  S
O1640      H1644   0.991       .  S
O1642      H1643   0.992       .  S
C1645      C1650   1.411       .  A
C1646      C1647   1.401       .  A
C1646      H1651   1.084       .  S
C1647      O1652   1.370       .  S
C1648      C1649   1.406       .  A
C1649      C1650   1.400       .  A
C1649      H1653   1.084       .  S
C1650      O1654   1.372       .  S
O1652      H1656   0.992       .  S
O1654      H1655   0.992   1_565  S
C1657      C1658   1.407       .  A
C1658      C1659   1.400       .  A
C1658      H1663   1.084       .  S
C1659      C1660   1.409       .  A
C1659      O1664   1.372       .  S
C1661      C1662   1.402       .  A
C1661      H1665   1.084       .  S
C1662      O1666   1.372       .  S
O1664      H1668   0.992       .  S
O1666      H1667   0.992       .  S
C1669      C1926   1.410   1_554  A
C1670      C1671   1.394       .  A
C1670      H1675   1.084       .  S
C1671      O1676   1.370       .  S
C1672      C1925   1.406   1_554  A
C1673      C1924   1.406       .  A
C1673      C1674   1.401       .  A
C1673      H1677   1.083       .  S
C1674      C1921   1.409       .  A
C1674      O1678   1.371       .  S
O1676      H1680   0.991       .  S
O1678      H1679   0.992       .  S
C1681      C1682   1.406       .  A
C1681      C1938   1.413       .  A
C1682      C1683   1.396       .  A
C1682      H1687   1.083       .  S
C1683      C1684   1.409       .  A
C1683      O1688   1.372       .  S
C1685      H1689   1.084       .  S
C1686      C1933   1.413   1_554  A
O1688      H1692   0.992       .  S
O1690      H1691   0.992       .  S
C1693      C1698   1.410       .  A
C1694      C1695   1.403       .  A
C1694      H1699   1.084       .  S
C1695      C1696   1.411       .  A
C1695      O1700   1.372       .  S
C1697      C1698   1.400       .  A
C1697      H1701   1.084       .  S
C1698      O1702   1.372       .  S
O1700      H1704   0.992       .  S
O1702      H1703   0.992       .  S
C1705      C1706   1.406   1_455  A
C1706      C1707   1.400       .  A
C1706      H1711   1.084       .  S
C1707      C1708   1.410   1_655  A
C1707      O1712   1.372       .  S
C1709      C1710   1.400       .  A
C1709      H1713   1.084       .  S
C1710      O1714   1.372       .  S
O1712      H1716   0.992       .  S
O1714      H1715   0.992       .  S
C1717      C1722   1.405       .  A
C1718      C1719   1.399       .  A
C1718      H1723   1.084       .  S
C1719      O1724   1.373       .  S
C1720      C1721   1.402       .  A
C1721      C1722   1.397       .  A
C1721      H1725   1.085       .  S
C1722      O1726   1.371       .  S
O1724      H1728   0.992       .  S
O1726      H1727   0.991       .  S
C1729      C1730   1.401       .  A
C1730      C1731   1.396       .  A
C1730      H1735   1.084       .  S
C1731      C1732   1.406       .  A
C1731      O1736   1.372       .  S
C1733      C1734   1.398       .  A
C1733      H1737   1.084       .  S
C1734      O1738   1.373       .  S
O1736      H1740   0.991       .  S
O1738      H1739   0.992       .  S
C1741      C1994   1.406       .  A
C1742      C1993   1.406   1_554  A
C1742      C1743   1.401       .  A
C1742      H1747   1.083       .  S
C1743      C1996   1.410   1_554  A
C1743      O1748   1.372       .  S
C1744      C1995   1.410       .  A
C1745      C1746   1.394       .  A
C1745      H1749   1.084       .  S
C1746      O1750   1.372       .  S
O1748      H1752   0.992       .  S
O1750      H1751   0.992       .  S
C1753      C1758   1.414   1_554  A
C1754      C1755   1.398       .  A
C1754      H1759   1.083       .  S
C1755      O1760   1.372       .  S
C1756      C1757   1.401   1_454  A
C1757      C1758   1.399       .  A
C1757      H1761   1.084       .  S
C1758      O1762   1.371       .  S
O1760      H1764   0.992       .  S
O1762      H1763   0.992       .  S
O1765     Ni1773   1.916       .  S
O1767      C1777   1.281       .  A
O1768     Ni1773   1.914       .  S
O1768      C1778   1.276       .  A
O1770     Ni1774   1.914   1_556  S
O1771     Ni1774   1.917       .  S
O1771      C1776   1.282   1_554  A
O1772      C1775   1.281       .  A
C1776      C1993   1.481       .  S
C1777      C1969   1.459       .  S
C1778      C1981   1.458       .  S
O1779     Ni1787   1.912       .  S
O1779      C1789   1.280   1_655  A
O1780     Ni1787   1.920       .  S
O1780      C1790   1.282       .  A
O1781     Ni1787   1.910       .  S
O1781      C1791   1.276       .  A
O1782     Ni1787   1.906   1_455  S
O1782      C1792   1.282       .  A
O1783     Ni1788   1.913       .  S
O1784     Ni1788   1.909       .  S
O1785     Ni1788   1.919       .  S
O1786     Ni1788   1.924       .  S
C1789      C1957   1.479       .  S
C1790      C1945   1.483       .  S
C1791      C1984   1.458       .  S
C1792      C1972   1.459       .  S
O1793     Ni1799   1.923   1_545  S
O1794     Ni1817   1.911       .  S
O1795      H1818   0.966       .  S
C1796      O1813   1.276   1_455  A
C1796      C2008   1.472       .  S
O1797     Ni1816   1.920       .  S
O1798     Ni1816   1.910       .  S
O1798      C1800   1.267       .  A
Ni1799     O1802   1.915       .  S
Ni1799     O1804   1.917       .  S
O1801     Ni1817   1.923       .  S
O1801      C1807   1.280       .  A
C1803      C1924   1.483       .  S
O1804      C1806   1.269       .  A
O1805     Ni1816   1.923       .  S
C1807      C1996   1.481       .  S
H1808      O1809   0.967       .  S
O1810     Ni1811   1.951       .  S
Ni1811     O1815   1.907       .  S
Ni1811     O1813   1.915       .  S
O1812     Ni1817   1.950       .  S
C1814      C1933   1.484       .  S
O1819     Ni1825   1.928       .  S
O1820     Ni1843   1.912       .  S
O1820      C1829   1.272       .  A
O1821      H1844   0.966       .  S
O1821     Ni1825   1.908       .  S
C1822      O1839   1.282   1_455  A
C1822      C1960   1.482       .  S
O1823     Ni1842   1.929       .  S
O1824     Ni1842   1.920       .  S
O1824      C1826   1.270       .  A
Ni1825     O1828   1.928       .  S
Ni1825     O1830   1.918       .  S
O1827     Ni1843   1.924       .  S
O1827      C1833   1.279       .  A
C1829      C1900   1.485       .  S
O1830      C1832   1.269       .  A
O1831     Ni1842   1.920       .  S
C1833      C1948   1.485       .  S
H1834      O1835   0.967       .  S
O1835     Ni1842   1.901       .  S
O1836     Ni1837   1.947       .  S
Ni1837     O1841   1.914       .  S
Ni1837     O1839   1.928       .  S
O1838     Ni1843   1.946       .  S
C1840      O1841   1.271       .  A
C1840      C1909   1.484       .  S
O1845      C1855   1.281       .  A
O1846     Ni1853   1.916       .  S
O1846      C1856   1.277       .  A
O1847     Ni1853   1.912       .  S
O1847      C1857   1.280       .  A
O1848     Ni1853   1.914       .  S
O1849     Ni1854   1.914       .  S
O1850     Ni1854   1.915       .  S
O1852     Ni1854   1.916   1_556  S
C1855      C1873   1.458       .  S
C1856      C1885   1.459       .  S
C1857      C1921   1.474       .  S
O1859     Ni1867   1.919       .  S
O1859      C1869   1.278       .  A
O1860     Ni1867   1.904   1_545  S
O1860      C1870   1.282       .  A
O1861     Ni1867   1.918       .  S
O1861      C1871   1.282       .  A
O1862     Ni1867   1.916       .  S
O1862      C1872   1.281   1_565  A
O1863     Ni1868   1.922       .  S
O1864     Ni1868   1.920       .  S
O1865     Ni1868   1.913       .  S
O1866     Ni1868   1.898       .  S
C1869      C1888   1.458       .  S
C1870      C1876   1.457       .  S
C1871      C1897   1.482       .  S
C1873      C1878   1.406       .  A
C1874      C1875   1.397       .  A
C1874      H1879   1.084       .  S
C1875      O1880   1.371       .  S
C1876      C1877   1.401       .  A
C1877      C1878   1.398       .  A
C1877      H1881   1.084       .  S
C1878      O1882   1.373       .  S
O1880      H1884   0.991       .  S
O1882      H1883   0.992       .  S
C1885      C1890   1.406       .  A
C1886      C1887   1.398       .  A
C1886      H1891   1.084       .  S
C1887      O1892   1.372       .  S
C1888      C1889   1.401       .  A
C1889      C1890   1.398       .  A
C1889      H1893   1.084       .  S
C1890      O1894   1.373       .  S
O1892      H1896   0.991       .  S
O1894      H1895   0.992       .  S
C1897      C1902   1.411       .  A
C1898      C1899   1.401       .  A
C1898      H1903   1.084       .  S
C1899      O1904   1.370       .  S
C1900      C1901   1.406       .  A
C1901      C1902   1.400       .  A
C1901      H1905   1.084       .  S
C1902      O1906   1.372       .  S
O1904      H1908   0.992       .  S
O1906      H1907   0.992   1_565  S
C1909      C1910   1.407       .  A
C1910      C1911   1.400       .  A
C1910      H1915   1.084       .  S
C1911      C1912   1.409       .  A
C1911      O1916   1.372       .  S
C1913      C1914   1.402       .  A
C1913      H1917   1.084       .  S
C1914      O1918   1.372       .  S
O1916      H1920   0.992       .  S
O1918      H1919   0.992       .  S
C1922      C1923   1.394       .  A
C1922      H1927   1.084       .  S
C1923      O1928   1.370       .  S
C1925      C1926   1.401       .  A
C1925      H1929   1.083       .  S
C1926      O1930   1.371       .  S
O1928      H1932   0.991       .  S
O1930      H1931   0.992       .  S
C1933      C1934   1.407       .  A
C1934      C1935   1.396       .  A
C1934      H1939   1.083       .  S
C1935      C1936   1.409       .  A
C1935      O1940   1.372       .  S
C1937      H1941   1.084       .  S
O1940      H1944   0.992       .  S
O1942      H1943   0.992       .  S
C1945      C1950   1.410       .  A
C1946      C1947   1.403       .  A
C1946      H1951   1.084       .  S
C1947      C1948   1.411       .  A
C1947      O1952   1.372       .  S
C1949      C1950   1.400       .  A
C1949      H1953   1.084       .  S
C1950      O1954   1.372       .  S
O1952      H1956   0.992       .  S
O1954      H1955   0.992       .  S
C1957      C1958   1.406   1_455  A
C1958      C1959   1.400       .  A
C1958      H1963   1.084       .  S
C1959      C1960   1.409   1_655  A
C1959      O1964   1.372       .  S
C1961      C1962   1.400       .  A
C1961      H1965   1.084       .  S
C1962      O1966   1.372       .  S
O1964      H1968   0.992       .  S
O1966      H1967   0.992       .  S
C1969      C1974   1.405       .  A
C1970      C1971   1.398       .  A
C1970      H1975   1.084       .  S
C1971      O1976   1.373       .  S
C1972      C1973   1.402       .  A
C1973      C1974   1.397       .  A
C1973      H1977   1.085       .  S
C1974      O1978   1.371       .  S
O1976      H1980   0.992       .  S
O1978      H1979   0.991       .  S
C1981      C1982   1.401       .  A
C1982      C1983   1.396       .  A
C1982      H1987   1.084       .  S
C1983      C1984   1.406       .  A
C1983      O1988   1.372       .  S
C1985      C1986   1.398       .  A
C1985      H1989   1.084       .  S
C1986      O1990   1.373       .  S
O1988      H1992   0.991       .  S
O1990      H1991   0.992       .  S
C1994      C1995   1.401       .  A
C1994      H1999   1.083       .  S
C1995      O2000   1.372       .  S
C1997      C1998   1.394       .  A
C1997      H2001   1.084       .  S
C1998      O2002   1.372       .  S
O2000      H2004   0.992       .  S
O2002      H2003   0.992       .  S
C2005      C2010   1.414       .  A
C2006      C2007   1.398       .  A
C2006      H2011   1.083       .  S
C2007      O2012   1.372       .  S
C2008      C2009   1.401   1_455  A
C2009      C2010   1.399       .  A
C2009      H2013   1.084       .  S
C2010      O2014   1.371       .  S
O2012      H2016   0.992       .  S
O2014      H2015   0.992       .  S
