geometry optimzed in LAMMPS
_audit_creation_date              2020-11-30 
_audit_creation_method            'lammps2cif' 
_symmetry_space_group_name_H-M    'P1' 
_symmetry_Int_Tables_number       1 
_symmetry_cell_setting            triclinic 
loop_ 
_symmetry_equiv_pos_as_xyz 
  x,y,z 
_cell_length_a                    29.62106984 
_cell_length_b                    29.62369476387976 
_cell_length_c                    29.642956807806865 
_cell_angle_alpha                 90.02522375298021 
_cell_angle_beta                  90.02763252223143 
_cell_angle_gamma                 89.98091232443089 
loop_ 
_atom_site_label 
_atom_site_type_symbol 
_atom_site_fract_x 
_atom_site_fract_y 
_atom_site_fract_z 
_atom_site_charge 
N1          N  0.99866172  0.49855590  0.56790509    -0.36700
N2          N  0.99979472  0.42964239  0.49824679    -0.57300
N3          N  0.99606546  0.49939322  0.42978595    -0.36700
N4          N  0.00022818  0.56830096  0.49923585    -0.57300
C5          C  0.01017892  0.46163142  0.59212542     0.26900
C6          C  0.01025640  0.53513957  0.59263296     0.26900
C7          C  0.00672063  0.46279915  0.40465449     0.26900
C8          C  0.00678781  0.53630460  0.40518283     0.26900
C9          C  0.99137237  0.40370346  0.53475258     0.35500
C10         C  0.98991007  0.40413644  0.46175684     0.35500
C11         C  0.99128311  0.59364882  0.53604947     0.35500
C12         C  0.98991551  0.59410026  0.46310091     0.35500
C13         C  0.02931601  0.47486842  0.63274174    -0.22000
C14         C  0.02939231  0.52133457  0.63305142    -0.22000
C15         C  0.02454578  0.47660790  0.36366117    -0.22000
C16         C  0.02454673  0.52306053  0.36398359    -0.22000
C17         C  0.97587269  0.36161099  0.52144726    -0.23000
C18         C  0.97492374  0.36189316  0.47511557    -0.23000
C19         C  0.97498876  0.63561433  0.52326884    -0.23000
C20         C  0.97419732  0.63591831  0.47695460    -0.23000
C21         C  0.00101071  0.41649968  0.57962163    -0.18400
C22         C  0.00106851  0.58043134  0.58075102    -0.18400
C23         C  0.99796826  0.58142523  0.41792948    -0.18400
C24         C  0.99785040  0.41748987  0.41672092    -0.18400
H25         H  0.04160055  0.45329622  0.65953268     0.14500
H26         H  0.04175150  0.54251889  0.66012757     0.14500
H27         H  0.03595261  0.45543303  0.33617146     0.14500
H28         H  0.03591180  0.54461671  0.33679841     0.14500
H29         H  0.96673305  0.33347541  0.54285074     0.12800
H30         H  0.96490476  0.33401930  0.45373388     0.12800
H31         H  0.96513187  0.66327286  0.54500140     0.12800
H32         H  0.96366779  0.66384012  0.45589517     0.12800
H33         H  0.97915712  0.49876732  0.53870908     0.26100
H34         H  0.97755666  0.49922633  0.45960728     0.26100
O35         O  0.99726377  0.12784877  0.07216687    -0.80200
O36         O  0.00216534  0.87039465  0.07375827    -0.81800
O37         O  0.92636226  0.00043980  0.12840109    -0.78800
O38         O  0.07432654  0.99634009  0.12731377    -0.77200
O39         O  0.12848620  0.99724917  0.07240963    -0.79000
O40         O  0.87143152  0.99963057  0.07423929    -0.79900
O41         O  0.99922434  0.92527984  0.12811577    -0.81200
O42         O  0.00138725  0.07383527  0.12725671    -0.81500
Eu43       Eu  0.00008209  0.99914298  0.09059783     2.39200
O44         O  0.04560447  0.95318254  0.04462756    -0.89000
O45         O  0.95359333  0.04443183  0.04505144    -0.92600
C46         C  0.99929323  0.11527347  0.11380672     1.02100
C47         C  0.00088344  0.88367300  0.11525371     1.01900
C48         C  0.88464016  0.00049451  0.11577399     1.01800
C49         C  0.11584965  0.99606360  0.11408785     0.99700
H50         H  0.93542916  0.93374329  0.06453851     0.29400
O51         O  0.95412864  0.95250162  0.04551700    -1.01400
H52         H  0.06444024  0.06395269  0.06301965     0.29500
O53         O  0.04549253  0.04499276  0.04438468    -1.03900
O54         O  0.99916606  0.86937410  0.92509746    -0.81200
O55         O  0.00009657  0.12697669  0.92412935    -0.80700
O56         O  0.87103372  0.92381672  0.00016173    -0.79100
O57         O  0.12826597  0.92458977  0.99878745    -0.82500
O58         O  0.12696918  0.07362865  0.99681441    -0.80300
O59         O  0.87026266  0.07166852  0.00128331    -0.79000
O60         O  0.92438667  0.99609510  0.87114726    -0.80500
O61         O  0.07381082  0.99862111  0.87029215    -0.82400
O62         O  0.87031612  0.99608473  0.92621360    -0.79200
O63         O  0.12864193  0.99769545  0.92461833    -0.81900
O64         O  0.92582265  0.86946555  0.99950674    -0.77600
O65         O  0.92433620  0.12666629  0.99951796    -0.77600
O66         O  0.07201032  0.12784782  0.99800090    -0.77300
O67         O  0.07397335  0.86977584  0.99938860    -0.80800
O68         O  0.00075235  0.92396676  0.87051774    -0.80200
O69         O  0.00080830  0.07228222  0.86971868    -0.78500
Eu70       Eu  0.99986416  0.90687842  0.99923873     2.39800
Eu71       Eu  0.99862245  0.08998247  0.99844333     2.39600
Eu72       Eu  0.90804516  0.99801285  0.99977578     2.38400
Eu73       Eu  0.09102677  0.99880554  0.99845379     2.39900
Eu74       Eu  0.99924703  0.99825584  0.90725983     2.39800
O75         O  0.04478379  0.04434357  0.95283182    -0.92900
O76         O  0.95379468  0.95249046  0.95355764    -0.91800
C77         C  0.00012240  0.88237095  0.88350131     1.02200
C78         C  0.00108403  0.11397762  0.88252708     1.01000
C79         C  0.88412884  0.88222791  0.99984857     1.00300
C80         C  0.11553945  0.88288557  0.99931033     1.04000
C81         C  0.11366927  0.11517557  0.99703778     1.01300
C82         C  0.88286746  0.11336594  0.00098620     1.00100
C83         C  0.88286096  0.99537427  0.88452728     1.00200
C84         C  0.11554683  0.99796006  0.88305860     1.02800
H85         H  0.93366467  0.06271503  0.93394048     0.30200
O86         O  0.95276195  0.04402835  0.95278722    -1.05100
H87         H  0.06420390  0.93372641  0.93422108     0.32200
O88         O  0.04534450  0.95256957  0.95295896    -1.07700
N89         N  0.50028850  0.99333842  0.42967602    -0.36700
N90         N  0.56958084  0.99542158  0.49953512    -0.57300
N91         N  0.49974466  0.99365780  0.56811741    -0.36700
N92         N  0.43050762  0.99819699  0.49842303    -0.57300
C93         C  0.53722913  0.00312953  0.40471413     0.26900
C94         C  0.46373736  0.00302076  0.40405924     0.26900
C95         C  0.53659874  0.00131809  0.59397735     0.26900
C96         C  0.46313684  0.00392351  0.59338261     0.26900
C97         C  0.59608552  0.98887298  0.46304518     0.35500
C98         C  0.59580340  0.98756830  0.53601764     0.35500
C99         C  0.40413276  0.99099591  0.46189789     0.35500
C100        C  0.40379280  0.99234045  0.53490378     0.35500
C101        C  0.52397279  0.01879266  0.36264692    -0.22000
C102        C  0.47758580  0.01863551  0.36220725    -0.22000
C103        C  0.52324892  0.01622989  0.63627132    -0.22000
C104        C  0.47688835  0.01791007  0.63588407    -0.22000
C105        C  0.63938777  0.97714145  0.47638242    -0.23000
C106        C  0.63919772  0.97626372  0.52264760    -0.23000
C107        C  0.36045244  0.98085660  0.47523224    -0.23000
C108        C  0.36021034  0.98183976  0.52149774    -0.23000
C109        C  0.58256755  0.99623043  0.41796551    -0.18400
C110        C  0.41822880  0.99633714  0.41669141    -0.18400
C111        C  0.41760556  0.99848555  0.58011107    -0.18400
C112        C  0.58185510  0.99317173  0.58122683    -0.18400
H113        H  0.54548872  0.02915514  0.33502854     0.14500
H114        H  0.45645448  0.02893522  0.33424394     0.14500
H115        H  0.54467966  0.02487380  0.66456961     0.14500
H116        H  0.45570011  0.02800294  0.66386725     0.14500
H117        H  0.66820873  0.97025880  0.45502509     0.12800
H118        H  0.66785868  0.96860230  0.54397210     0.12800
H119        H  0.33164438  0.97384453  0.45388532     0.12800
H120        H  0.33121054  0.97564961  0.54280909     0.12800
H121        H  0.50002151  0.97641093  0.46034881     0.26100
H122        H  0.49941916  0.97747642  0.53705478     0.26100
N123        N  0.49981216  0.56675876  0.00707153    -0.36700
N124        N  0.56899015  0.49747313  0.00058297    -0.57300
N125        N  0.49893398  0.42846679  0.00140380    -0.36700
N126        N  0.42990999  0.49797820  0.00197785    -0.57300
C127        C  0.53655005  0.59206284  0.99733546     0.26900
C128        C  0.46305112  0.59231142  0.99800140     0.26900
C129        C  0.53555743  0.40341401  0.99066046     0.26900
C130        C  0.46198524  0.40365598  0.99106588     0.26900
C131        C  0.59531713  0.53358822  0.00981266     0.35500
C132        C  0.59492509  0.46053509  0.00725352     0.35500
C133        C  0.40419541  0.53430519  0.01199809     0.35500
C134        C  0.40372267  0.46131574  0.00903863     0.35500
C135        C  0.52300095  0.63420603  0.98214619    -0.22000
C136        C  0.47659789  0.63434341  0.98250622    -0.22000
C137        C  0.52175791  0.36209465  0.97346494    -0.22000
C138        C  0.47532445  0.36226963  0.97366031    -0.22000
C139        C  0.63821596  0.51960121  0.02215980    -0.23000
C140        C  0.63794963  0.47326555  0.02065209    -0.23000
C141        C  0.36153547  0.52069606  0.02549810    -0.23000
C142        C  0.36124130  0.47441206  0.02366037    -0.23000
C143        C  0.58191812  0.57900041  0.00421004    -0.18400
C144        C  0.41772787  0.57959015  0.00584863    -0.18400
C145        C  0.41669049  0.41643992  0.99937973    -0.18400
C146        C  0.58099025  0.41566574  0.99884935    -0.18400
H147        H  0.54433396  0.66208434  0.97206075     0.14500
H148        H  0.45527563  0.66235731  0.97273050     0.14500
H149        H  0.54294600  0.33450019  0.96227773     0.14500
H150        H  0.45387822  0.33483556  0.96260392     0.14500
H151        H  0.66676517  0.54059268  0.03106873     0.12800
H152        H  0.66629495  0.45149929  0.02826681     0.12800
H153        H  0.33343136  0.54190126  0.03526915     0.12800
H154        H  0.33286751  0.45290661  0.03180938     0.12800
H155        H  0.49987259  0.53591294  0.02377267     0.26100
H156        H  0.49923126  0.45842683  0.01961898     0.26100
C157        C  0.84884606  0.84667130  0.99996470    -0.03400
C158        C  0.80298881  0.85810984  0.99478297    -0.09200
C159        C  0.76975144  0.82462167  0.99488136    -0.16900
C160        C  0.78172494  0.77926444  0.00028983     0.25300
C161        C  0.82720135  0.76745548  0.00541505    -0.18500
C162        C  0.86056231  0.80087786  0.00521420    -0.07400
C163        C  0.74722718  0.74500494  0.00081713    -0.13900
C164        C  0.71796672  0.71668432  0.00131030    -0.13600
C165        C  0.68328624  0.68259963  0.00180097     0.25200
C166        C  0.68074036  0.65098110  0.96675163    -0.19000
C167        C  0.64789453  0.61710262  0.96768650    -0.07500
C168        C  0.61717704  0.61463167  0.00363306    -0.03600
C169        C  0.61939402  0.64677045  0.03840753    -0.08900
C170        C  0.65239184  0.68055972  0.03753252    -0.16500
H171        H  0.79271336  0.89292708  0.99048942     0.11600
H172        H  0.73466332  0.83413640  0.99081892     0.10900
H173        H  0.83687926  0.73243739  0.00965251     0.10900
H174        H  0.89546743  0.79082790  0.00939199     0.11400
H175        H  0.70428542  0.65238204  0.93883230     0.11400
H176        H  0.64627120  0.59285912  0.94037521     0.11400
H177        H  0.59570621  0.64549089  0.06620299     0.11500
H178        H  0.65393282  0.70493409  0.06475056     0.10400
C179        C  0.61557091  0.37940442  0.99884594    -0.03400
C180        C  0.65005608  0.37888877  0.96635206    -0.09200
C181        C  0.68283329  0.34492606  0.96706475    -0.16900
C182        C  0.68129403  0.31123736  0.00016631     0.25300
C183        C  0.64673492  0.31137738  0.03233502    -0.18500
C184        C  0.61399775  0.34530518  0.03168064    -0.07400
C185        C  0.71544682  0.27683129  0.00149397    -0.13900
C186        C  0.74436893  0.24829353  0.00268233    -0.13600
C187        C  0.77924332  0.21461076  0.00342449     0.25200
C188        C  0.76864918  0.16974231  0.01356251    -0.19000
C189        C  0.80238388  0.13677352  0.01296705    -0.07500
C190        C  0.84722977  0.14837063  0.00233871    -0.03600
C191        C  0.85759923  0.19374445  0.99284023    -0.08900
C192        C  0.82376067  0.22658998  0.99328246    -0.16500
H193        H  0.65158643  0.40483981  0.94067144     0.11600
H194        H  0.70943785  0.34503509  0.94199203     0.10900
H195        H  0.64525392  0.28543623  0.05804612     0.10900
H196        H  0.58757563  0.34524119  0.05692783     0.11400
H197        H  0.73427908  0.16018745  0.02161770     0.11400
H198        H  0.79332652  0.10225229  0.02085109     0.11400
H199        H  0.89172930  0.20381778  0.98450338     0.11500
H200        H  0.83226297  0.26127404  0.98540393     0.10400
C201        C  0.38258650  0.61540507  0.00604081    -0.03400
C202        C  0.34867346  0.61577971  0.97292433    -0.09200
C203        C  0.31578561  0.64963463  0.97289820    -0.16900
C204        C  0.31650329  0.68346038  0.00591262     0.25300
C205        C  0.35037663  0.68336753  0.03890985    -0.18500
C206        C  0.38328987  0.64949164  0.03898545    -0.07400
C207        C  0.28238354  0.71810209  0.00590131    -0.13900
C208        C  0.25348914  0.74679729  0.00527871    -0.13600
C209        C  0.21886362  0.78090163  0.00379250     0.25200
C210        C  0.23054369  0.82623673  0.99762447    -0.19000
C211        C  0.19697622  0.85938431  0.99585101    -0.07500
C212        C  0.15112438  0.84762117  0.00022489    -0.03600
C213        C  0.13973993  0.80184496  0.00620791    -0.08900
C214        C  0.17340628  0.76878418  0.00804737    -0.16500
H215        H  0.34782044  0.58990433  0.94710986     0.11600
H216        H  0.28980692  0.64943235  0.94715884     0.10900
H217        H  0.35129838  0.70940268  0.06457179     0.10900
H218        H  0.40927439  0.64972967  0.06470704     0.11400
H219        H  0.26562335  0.83598500  0.99417548     0.11400
H220        H  0.20699958  0.89420242  0.99106406     0.11400
H221        H  0.10485770  0.79153468  0.00981424     0.11500
H222        H  0.16396982  0.73377284  0.01279694     0.10400
C223        C  0.14862023  0.15087968  0.99602068    -0.03400
C224        C  0.19411803  0.13986019  0.98792079    -0.09200
C225        C  0.22695177  0.17365611  0.98621435    -0.16900
C226        C  0.21483942  0.21884055  0.99268678     0.25300
C227        C  0.16978385  0.23016706  0.00113944    -0.18500
C228        C  0.13683458  0.19646050  0.00273365    -0.07400
C229        C  0.24877236  0.25348359  0.99114879    -0.13900
C230        C  0.27768015  0.28208179  0.99091748    -0.13600
C231        C  0.31277369  0.31557362  0.99245420     0.25200
C232        C  0.31229058  0.35205983  0.96244430    -0.19000
C233        C  0.34627063  0.38475636  0.96450363    -0.07500
C234        C  0.38092221  0.38132680  0.99673425    -0.03600
C235        C  0.38124068  0.34459695  0.02665451    -0.08900
C236        C  0.34735001  0.31186118  0.02445819    -0.16500
H237        H  0.20435742  0.10518041  0.98253591     0.11600
H238        H  0.26178787  0.16453932  0.97979607     0.10900
H239        H  0.16011271  0.26504460  0.00645171     0.10900
H240        H  0.10219580  0.20613664  0.00930613     0.11400
H241        H  0.28566434  0.35527206  0.93757742     0.11400
H242        H  0.34556581  0.41282383  0.94110754     0.11400
H243        H  0.40761469  0.34147924  0.05178033     0.11500
H244        H  0.34797924  0.28377028  0.04784612     0.10400
C245        C  0.61659463  0.99178705  0.61724396    -0.03400
C246        C  0.61752672  0.95576730  0.64798782    -0.09200
C247        C  0.65006562  0.95455578  0.68215356    -0.16900
C248        C  0.68177198  0.98942378  0.68588844     0.25300
C249        C  0.68083200  0.02548385  0.65536833    -0.18500
C250        C  0.64837910  0.02668366  0.62116251    -0.07400
C251        C  0.71534654  0.98837199  0.72092374    -0.13900
C252        C  0.74403461  0.98859723  0.74975371    -0.13600
C253        C  0.77882857  0.98994277  0.78356960     0.25200
C254        C  0.76779563  0.98474932  0.82914215    -0.19000
C255        C  0.80159206  0.98657120  0.86201292    -0.07500
C256        C  0.84699053  0.99355075  0.84967709    -0.03600
C257        C  0.85767875  0.99863814  0.80369725    -0.08900
C258        C  0.82378579  0.99691659  0.77092609    -0.16500
H259        H  0.59311643  0.92867329  0.64538449     0.11600
H260        H  0.65049214  0.92652057  0.70560892     0.10900
H261        H  0.70517057  0.05264940  0.65803490     0.10900
H262        H  0.64788791  0.05479117  0.59781253     0.11400
H263        H  0.73307355  0.97935582  0.83928084     0.11400
H264        H  0.79212943  0.98233004  0.89703789     0.11400
H265        H  0.89218038  0.00417814  0.79299580     0.11500
H266        H  0.83264655  0.00109890  0.73571631     0.10400
C267        C  0.38250235  0.99923329  0.61576282    -0.03400
C268        C  0.37893537  0.96305767  0.64607933    -0.09200
C269        C  0.34575545  0.96337840  0.67957360    -0.16900
C270        C  0.31596173  0.99991960  0.68314471     0.25300
C271        C  0.31963671  0.03629797  0.65315573    -0.18500
C272        C  0.35276916  0.03594925  0.61953008    -0.07400
C273        C  0.28143453  0.99973990  0.71732918    -0.13900
C274        C  0.25254305  0.99888279  0.74598522    -0.13600
C275        C  0.21807674  0.99778371  0.78023689     0.25200
C276        C  0.17327111  0.00782207  0.76911323    -0.19000
C277        C  0.13986798  0.00752182  0.80244671    -0.07500
C278        C  0.15086727  0.99739747  0.84753592    -0.03600
C279        C  0.19600671  0.98692583  0.85829101    -0.08900
C280        C  0.22930917  0.98703546  0.82482568    -0.16500
H281        H  0.40170652  0.93455113  0.64356082     0.11600
H282        H  0.34323333  0.93508618  0.70258001     0.10900
H283        H  0.29682082  0.06477809  0.65566112     0.10900
H284        H  0.35529432  0.06417390  0.59645334     0.11400
H285        H  0.16417205  0.01612591  0.73469576     0.11400
H286        H  0.10553442  0.01577223  0.79297168     0.11400
H287        H  0.20561664  0.97856085  0.89253566     0.11500
H288        H  0.26385583  0.97898363  0.83378182     0.10400
C289        C  0.15151801  0.99448601  0.14919130    -0.03400
C290        C  0.14033989  0.98715308  0.19478539    -0.09200
C291        C  0.17397509  0.98656266  0.22790177    -0.16900
C292        C  0.21916676  0.99336897  0.21598750     0.25300
C293        C  0.23070251  0.00018632  0.17074666    -0.18500
C294        C  0.19718210  0.00066240  0.13754634    -0.07400
C295        C  0.25364509  0.99400371  0.25020580    -0.13900
C296        C  0.28258525  0.99488392  0.27880682    -0.13600
C297        C  0.31707475  0.99571469  0.31300752     0.25200
C298        C  0.34897220  0.96088257  0.31526736    -0.19000
C299        C  0.38206744  0.96123647  0.34890270    -0.07500
C300        C  0.38342854  0.99638706  0.38064624    -0.03600
C301        C  0.35168764  0.03149227  0.37798674    -0.08900
C302        C  0.31862478  0.03112813  0.34430506    -0.16500
H303        H  0.10561790  0.98195806  0.20494542     0.11600
H304        H  0.16469239  0.98110764  0.26282776     0.10900
H305        H  0.26559675  0.00544799  0.16115141     0.10900
H306        H  0.20703839  0.00637992  0.10284545     0.11400
H307        H  0.34812382  0.93338301  0.29117404     0.11400
H308        H  0.40642579  0.93400171  0.35045962     0.11400
H309        H  0.35252606  0.05898158  0.40207655     0.11500
H310        H  0.29419586  0.05831163  0.34278108     0.10400
C311        C  0.61798971  0.99819705  0.38273128    -0.03400
C312        C  0.62112521  0.96390976  0.35021829    -0.09200
C313        C  0.65465312  0.96566938  0.31711948    -0.16900
C314        C  0.68517195  0.00176090  0.31621067     0.25300
C315        C  0.68197399  0.03618877  0.34844888    -0.18500
C316        C  0.64850161  0.03441860  0.38161669    -0.07400
C317        C  0.71982945  0.00326610  0.28229082    -0.13900
C318        C  0.74868494  0.00372941  0.25364953    -0.13600
C319        C  0.78282188  0.00341705  0.21915307     0.25200
C320        C  0.82843410  0.00005637  0.23093103    -0.19000
C321        C  0.86157744  0.99916857  0.19737232    -0.07500
C322        C  0.84950461  0.00156863  0.15145262    -0.03600
C323        C  0.80346966  0.00501012  0.14004139    -0.08900
C324        C  0.77042232  0.00593839  0.17368394    -0.16500
H325        H  0.59774335  0.93580849  0.35068397     0.11600
H326        H  0.65683992  0.93888923  0.29231222     0.10900
H327        H  0.70536689  0.06428961  0.34798951     0.10900
H328        H  0.64629366  0.06119328  0.40641577     0.11400
H329        H  0.83838598  0.99799631  0.26605055     0.11400
H330        H  0.89661164  0.99641983  0.20745052     0.11400
H331        H  0.79290370  0.00703562  0.10512741     0.11500
H332        H  0.73517986  0.00851233  0.16421298     0.10400
C333        C  0.00234979  0.38104035  0.61502268    -0.03400
C334        C  0.03416099  0.34592855  0.61274963    -0.09200
C335        C  0.03506883  0.31242921  0.64598824    -0.16900
C336        C  0.00424510  0.31376642  0.68179917     0.25300
C337        C  0.97255656  0.34878379  0.68424239    -0.18500
C338        C  0.97163375  0.38229338  0.65105658    -0.07400
C339        C  0.00505255  0.27929963  0.71606416    -0.13900
C340        C  0.00522101  0.25063360  0.74497279    -0.13600
C341        C  0.00482783  0.21643083  0.77952527     0.25200
C342        C  0.00122327  0.22868475  0.82498375    -0.19000
C343        C  0.00018571  0.19546076  0.85850630    -0.07500
C344        C  0.00262436  0.14936389  0.84701225    -0.03600
C345        C  0.00653612  0.13747528  0.80115142    -0.08900
C346        C  0.00761907  0.17077919  0.76772585    -0.16500
H347        H  0.05820758  0.34456781  0.58526410     0.11600
H348        H  0.05975723  0.28552964  0.64376845     0.10900
H349        H  0.94854752  0.35015298  0.71176855     0.10900
H350        H  0.94686120  0.40910577  0.65327356     0.11400
H351        H  0.99904792  0.26393061  0.83452770     0.11400
H352        H  0.99722690  0.20593513  0.89338056     0.11400
H353        H  0.00871494  0.10242839  0.79099634     0.11500
H354        H  0.01047609  0.16089300  0.73264681     0.10400
C355        C  0.00220574  0.61554073  0.61656546    -0.03400
C356        C  0.03201539  0.65230231  0.61334767    -0.09200
C357        C  0.03189656  0.68603181  0.64635784    -0.16900
C358        C  0.00215799  0.68318837  0.68295852     0.25300
C359        C  0.97287972  0.64629758  0.68668196    -0.18500
C360        C  0.97285549  0.61264792  0.65363851    -0.07400
C361        C  0.00146951  0.71811811  0.71665875    -0.13900
C362        C  0.00070718  0.74697010  0.74531925    -0.13600
C363        C  0.00027909  0.78098139  0.77995663     0.25200
C364        C  0.98395496  0.77068924  0.82305017    -0.19000
C365        C  0.98429737  0.80350610  0.85698499    -0.07500
C366        C  0.00055588  0.84720735  0.84802230    -0.03600
C367        C  0.01683208  0.85721427  0.80455973    -0.08900
C368        C  0.01679093  0.82425295  0.77081576    -0.16500
H369        H  0.05507136  0.65494379  0.58512009     0.11600
H370        H  0.05480364  0.71436587  0.64324866     0.10900
H371        H  0.94985022  0.64372409  0.71494748     0.10900
H372        H  0.94964909  0.58456508  0.65666220     0.11400
H373        H  0.97106341  0.73727782  0.83044595     0.11400
H374        H  0.97132273  0.79486917  0.89002334     0.11400
H375        H  0.02993269  0.89042817  0.79673336     0.11500
H376        H  0.02968949  0.83250366  0.73762905     0.10400
C377        C  0.99833225  0.61700681  0.38258074    -0.03400
C378        C  0.96683074  0.61587761  0.34717309    -0.09200
C379        C  0.96724284  0.64931999  0.31386021    -0.16900
C380        C  0.99919667  0.68414395  0.31556117     0.25300
C381        C  0.03070014  0.68538766  0.35080195    -0.18500
C382        C  0.03028427  0.65200118  0.38415557    -0.07400
C383        C  0.99973654  0.71851602  0.28114948    -0.13900
C384        C  0.00024248  0.74731968  0.25235925    -0.13600
C385        C  0.00071175  0.78174079  0.21800002     0.25200
C386        C  0.02500162  0.77502465  0.17802276    -0.19000
C387        C  0.02493912  0.80816043  0.14440182    -0.07500
C388        C  0.00104542  0.84867531  0.15068057    -0.03600
C389        C  0.97712879  0.85540957  0.19108214    -0.08900
C390        C  0.97673115  0.82198534  0.22439738    -0.16500
H391        H  0.94192245  0.58916762  0.34548659     0.11600
H392        H  0.94269163  0.64800765  0.28679084     0.10900
H393        H  0.05560097  0.71211583  0.35246038     0.10900
H394        H  0.05493326  0.65328697  0.41112835     0.11400
H395        H  0.04384409  0.74411676  0.17276867     0.11400
H396        H  0.04394871  0.80237427  0.11372537     0.11400
H397        H  0.95818529  0.88621501  0.19656560     0.11500
H398        H  0.95771152  0.82751958  0.25511757     0.10400
C399        C  0.99946228  0.15105733  0.14851043    -0.03400
C400        C  0.02542967  0.14622403  0.18790438    -0.09200
C401        C  0.02615311  0.18053171  0.22036361    -0.16900
C402        C  0.00043670  0.21972741  0.21414031     0.25300
C403        C  0.97426551  0.22463138  0.17509018    -0.18500
C404        C  0.97402593  0.19065261  0.14228829    -0.07400
C405        C  0.00056909  0.25463930  0.24802351    -0.13900
C406        C  0.00041489  0.28341362  0.27686065    -0.13600
C407        C  0.99991627  0.31721024  0.31184272     0.25200
C408        C  0.03033711  0.31439920  0.34792850    -0.19000
C409        C  0.02958000  0.34690329  0.38215949    -0.07500
C410        C  0.99827840  0.38251347  0.38069844    -0.03600
C411        C  0.96788398  0.38520506  0.34439414    -0.08900
C412        C  0.96872828  0.35272312  0.31013969    -0.16500
H413        H  0.04565309  0.11622183  0.19323220     0.11600
H414        H  0.04664203  0.17642615  0.25037104     0.10900
H415        H  0.95407711  0.25470682  0.16998649     0.10900
H416        H  0.95352987  0.19501995  0.11232802     0.11400
H417        H  0.05462632  0.28709917  0.34959588     0.11400
H418        H  0.05347909  0.34445747  0.40971796     0.11400
H419        H  0.94355669  0.41245897  0.34268031     0.11500
H420        H  0.94502775  0.35524624  0.28240627     0.10400
loop_ 
_geom_bond_atom_site_label_1 
_geom_bond_atom_site_label_2 
_geom_bond_distance 
_geom_bond_site_symmetry_2 
_ccdc_geom_bond_type 
N1            C6   1.352   1_655  A
N1            C5   1.352   1_655  A
N1           H33   1.040       .  S
N2            C9   1.351       .  A
N2           C10   1.351       .  A
N3            C8   1.353   1_655  A
N3            C7   1.352   1_655  A
N3           H34   1.040       .  S
N4           C11   1.351   1_455  A
N4           C12   1.351   1_455  A
C5           C13   1.387       .  A
C5           C21   1.414       .  A
C6           C22   1.414       .  A
C6           C14   1.387       .  A
C7           C15   1.387       .  A
C7           C24   1.414   1_455  A
C8           C23   1.413   1_455  A
C8           C16   1.386       .  A
C9           C21   1.412   1_655  A
C9           C17   1.386       .  A
C10          C24   1.412       .  A
C10          C18   1.386       .  A
C11          C19   1.386       .  A
C11          C22   1.412   1_655  A
C12          C20   1.385       .  A
C12          C23   1.411       .  A
C13          C14   1.377       .  A
C13          H25   1.082       .  S
C14          H26   1.082       .  S
C15          C16   1.376       .  A
C15          H27   1.082       .  S
C16          H28   1.082       .  S
C17          C18   1.374       .  A
C17          H29   1.082       .  S
C18          H30   1.082       .  S
C19          C20   1.373       .  A
C19          H31   1.082       .  S
C20          H32   1.082       .  S
C21         C333   1.486       .  S
C22         C355   1.486       .  S
C23         C377   1.487       .  S
C24         C410   1.488       .  S
O35          C46   1.291       .  A
O35         Eu71   2.456   1_554  S
O36          C47   1.292       .  A
O36         Eu70   2.461   1_454  S
O37          C48   1.291       .  A
O37         Eu43   2.455   1_645  S
O38          C49   1.291       .  A
O38         Eu43   2.455       .  S
O39          C49   1.292       .  A
O39         Eu73   2.457   1_554  S
O40          C48   1.292   1_565  A
O40         Eu72   2.460   1_554  S
O41          C47   1.291   1_655  A
O41         Eu43   2.455   1_655  S
O42          C46   1.292   1_455  A
O42         Eu43   2.465   1_545  S
Eu43         O53   2.353   1_565  S
Eu43         O45   2.349   1_465  S
Eu43         O44   2.351       .  S
Eu43         O51   2.355   1_455  S
O44         Eu73   2.348   1_554  S
O44         Eu70   2.351   1_454  S
O45         Eu71   2.348   1_554  S
O45         Eu72   2.347   1_544  S
C46         C399   1.477       .  S
C47         C388   1.476       .  S
C48         C322   1.485       .  S
C49         C289   1.483       .  S
H50          O51   0.967       .  S
O51         Eu72   2.349   1_554  S
O51         Eu70   2.354   1_554  S
H52          O53   0.967       .  S
O53         Eu71   2.357   1_454  S
O53         Eu73   2.355   1_544  S
O54          C77   1.292   1_655  A
O54         Eu70   2.462       .  S
O55          C78   1.292       .  A
O55         Eu71   2.461   1_455  S
O56          C79   1.292   1_554  A
O56         Eu72   2.457   1_554  S
O57          C80   1.292       .  A
O57         Eu73   2.459       .  S
O58          C81   1.292       .  A
O58         Eu73   2.460   1_545  S
O59          C82   1.291       .  A
O59         Eu72   2.452   1_544  S
O60          C83   1.293       .  A
O60         Eu74   2.463       .  S
O61          C84   1.293       .  A
O61         Eu74   2.466   1_455  S
O62          C83   1.291       .  A
O62         Eu72   2.450       .  S
O63          C84   1.291       .  A
O63         Eu73   2.457       .  S
O64          C79   1.292       .  A
O64         Eu70   2.458       .  S
O65          C82   1.291   1_556  A
O65         Eu71   2.454       .  S
O66          C81   1.290       .  A
O66         Eu71   2.447   1_455  S
O67          C80   1.291       .  A
O67         Eu70   2.455   1_455  S
O68          C77   1.291       .  A
O68         Eu74   2.455   1_455  S
O69          C78   1.292       .  A
O69         Eu74   2.460   1_445  S
Eu70         O88   2.352   1_655  S
Eu70         O76   2.350       .  S
Eu71         O75   2.350   1_655  S
Eu71         O86   2.351       .  S
Eu72         O86   2.357   1_565  S
Eu72         O76   2.352       .  S
Eu73         O75   2.350   1_565  S
Eu73         O88   2.350       .  S
Eu74         O75   2.347   1_665  S
Eu74         O86   2.357   1_565  S
Eu74         O88   2.352   1_655  S
Eu74         O76   2.353       .  S
C77         C366   1.480       .  S
C78         C344   1.487       .  S
C79         C157   1.484       .  S
C80         C212   1.484   1_556  S
C81         C223   1.481       .  S
C82         C190   1.480       .  S
C83         C256   1.483       .  S
C84         C278   1.485       .  S
H85          O86   0.969       .  S
H87          O88   0.965       .  S
N89          C94   1.353   1_565  A
N89          C93   1.353   1_565  A
N89         H121   1.039       .  S
N90          C97   1.351       .  A
N90          C98   1.351       .  A
N91          C96   1.353   1_565  A
N91          C95   1.353   1_565  A
N91         H122   1.038       .  S
N92          C99   1.352       .  A
N92         C100   1.352       .  A
C93         C101   1.387       .  A
C93         C109   1.414   1_545  A
C94         C110   1.413   1_545  A
C94         C102   1.387       .  A
C95         C103   1.387       .  A
C95         C112   1.414   1_545  A
C96         C111   1.414   1_545  A
C96         C104   1.387       .  A
C97         C109   1.412       .  A
C97         C105   1.386       .  A
C98         C112   1.412       .  A
C98         C106   1.386       .  A
C99         C107   1.386       .  A
C99         C110   1.413       .  A
C100        C108   1.386       .  A
C100        C111   1.413       .  A
C101        C102   1.374       .  A
C101        H113   1.082       .  S
C102        H114   1.082       .  S
C103        C104   1.374       .  A
C103        H115   1.082       .  S
C104        H116   1.082       .  S
C105        C106   1.372       .  A
C105        H117   1.082       .  S
C106        H118   1.082       .  S
C107        C108   1.372       .  A
C107        H119   1.082       .  S
C108        H120   1.082       .  S
C109        C311   1.482       .  S
C110        C300   1.484       .  S
C111        C267   1.483       .  S
C112        C245   1.483       .  S
N123        C128   1.353   1_554  A
N123        C127   1.353   1_554  A
N123        H155   1.039       .  S
N124        C131   1.352       .  A
N124        C132   1.351       .  A
N125        C130   1.354   1_554  A
N125        C129   1.352   1_554  A
N125        H156   1.039       .  S
N126        C133   1.351       .  A
N126        C134   1.351       .  A
C127        C135   1.387       .  A
C127        C143   1.413   1_556  A
C128        C144   1.414   1_556  A
C128        C136   1.387       .  A
C129        C137   1.387       .  A
C129        C146   1.415       .  A
C130        C145   1.416       .  A
C130        C138   1.387       .  A
C131        C143   1.412       .  A
C131        C139   1.386       .  A
C132        C146   1.414   1_554  A
C132        C140   1.387       .  A
C133        C141   1.386       .  A
C133        C144   1.412       .  A
C134        C142   1.386       .  A
C134        C145   1.413   1_554  A
C135        C136   1.375       .  A
C135        H147   1.082       .  S
C136        H148   1.082       .  S
C137        C138   1.375       .  A
C137        H149   1.082       .  S
C138        H150   1.082       .  S
C139        C140   1.373       .  A
C139        H151   1.082       .  S
C140        H152   1.082       .  S
C141        C142   1.372       .  A
C141        H153   1.082       .  S
C142        H154   1.082       .  S
C143        C168   1.485       .  S
C144        C201   1.486       .  S
C145        C234   1.487       .  S
C146        C179   1.484       .  S
C157        C158   1.408       .  A
C157        C162   1.409   1_556  A
C158        C159   1.398       .  A
C158        H171   1.083       .  S
C159        C160   1.399   1_556  A
C159        H172   1.083       .  S
C160        C161   1.400       .  A
C160        C163   1.441       .  S
C161        C162   1.399       .  A
C161        H173   1.083       .  S
C162        H174   1.083       .  S
C163        C164   1.207       .  T
C164        C165   1.441       .  S
C165        C166   1.401   1_554  A
C165        C170   1.401       .  A
C166        C167   1.398       .  A
C166        H175   1.083       .  S
C167        C168   1.403   1_556  A
C167        H176   1.083       .  S
C168        C169   1.404       .  A
C169        C170   1.400       .  A
C169        H177   1.083       .  S
C170        H178   1.083       .  S
C179        C180   1.404       .  A
C179        C184   1.404   1_556  A
C180        C181   1.398       .  A
C180        H193   1.083       .  S
C181        C182   1.401   1_556  A
C181        H194   1.084       .  S
C182        C183   1.399       .  A
C182        C185   1.436       .  S
C183        C184   1.397       .  A
C183        H195   1.083       .  S
C184        H196   1.083       .  S
C185        C186   1.204       .  T
C186        C187   1.436       .  S
C187        C188   1.399       .  A
C187        C192   1.399   1_554  A
C188        C189   1.397       .  A
C188        H197   1.084       .  S
C189        C190   1.408       .  A
C189        H198   1.083       .  S
C190        C191   1.407   1_554  A
C191        C192   1.397       .  A
C191        H199   1.083       .  S
C192        H200   1.084       .  S
C201        C202   1.404   1_554  A
C201        C206   1.405       .  A
C202        C203   1.398       .  A
C202        H215   1.083       .  S
C203        C204   1.401   1_556  A
C203        H216   1.083       .  S
C204        C205   1.401       .  A
C204        C207   1.440       .  S
C205        C206   1.399       .  A
C205        H217   1.083       .  S
C206        H218   1.083       .  S
C207        C208   1.206       .  T
C208        C209   1.440       .  S
C209        C210   1.399   1_554  A
C209        C214   1.399       .  A
C210        C211   1.398       .  A
C210        H219   1.083       .  S
C211        C212   1.408   1_556  A
C211        H220   1.083       .  S
C212        C213   1.409       .  A
C213        C214   1.399       .  A
C213        H221   1.083       .  S
C214        H222   1.084       .  S
C223        C224   1.407       .  A
C223        C228   1.409   1_556  A
C224        C225   1.397       .  A
C224        H237   1.083       .  S
C225        C226   1.399       .  A
C225        H238   1.083       .  S
C226        C227   1.399   1_556  A
C226        C229   1.437       .  S
C227        C228   1.397       .  A
C227        H239   1.084       .  S
C228        H240   1.083       .  S
C229        C230   1.205       .  T
C230        C231   1.438       .  S
C231        C232   1.400       .  A
C231        C236   1.400   1_556  A
C232        C233   1.398       .  A
C232        H241   1.083       .  S
C233        C234   1.406       .  A
C233        H242   1.083       .  S
C234        C235   1.404   1_556  A
C235        C236   1.397       .  A
C235        H243   1.083       .  S
C236        H244   1.083       .  S
C245        C246   1.404       .  A
C245        C250   1.403   1_565  A
C246        C247   1.398       .  A
C246        H259   1.083       .  S
C247        C248   1.401       .  A
C247        H260   1.083       .  S
C248        C249   1.400   1_565  A
C248        C251   1.438       .  S
C249        C250   1.397       .  A
C249        H261   1.083       .  S
C250        H262   1.083       .  S
C251        C252   1.205       .  T
C252        C253   1.438       .  S
C253        C254   1.399       .  A
C253        C258   1.399       .  A
C254        C255   1.398       .  A
C254        H263   1.084       .  S
C255        C256   1.409       .  A
C255        H264   1.083       .  S
C256        C257   1.408       .  A
C257        C258   1.398       .  A
C257        H265   1.083   1_565  S
C258        H266   1.084   1_565  S
C267        C268   1.403       .  A
C267        C272   1.404   1_565  A
C268        C269   1.397       .  A
C268        H281   1.083       .  S
C269        C270   1.400       .  A
C269        H282   1.083       .  S
C270        C271   1.402   1_565  A
C270        C273   1.440       .  S
C271        C272   1.399       .  A
C271        H283   1.083       .  S
C272        H284   1.083       .  S
C273        C274   1.206       .  T
C274        C275   1.441       .  S
C275        C276   1.399   1_565  A
C275        C280   1.400       .  A
C276        C277   1.399       .  A
C276        H285   1.083       .  S
C277        C278   1.408   1_545  A
C277        H286   1.083       .  S
C278        C279   1.409       .  A
C279        C280   1.399       .  A
C279        H287   1.083       .  S
C280        H288   1.084       .  S
C289        C290   1.409       .  A
C289        C294   1.408   1_565  A
C290        C291   1.398       .  A
C290        H303   1.083       .  S
C291        C292   1.399       .  A
C291        H304   1.084       .  S
C292        C293   1.399   1_565  A
C292        C295   1.439       .  S
C293        C294   1.398       .  A
C293        H305   1.083       .  S
C294        H306   1.083       .  S
C295        C296   1.206       .  T
C296        C297   1.439       .  S
C297        C298   1.400       .  A
C297        C302   1.401   1_565  A
C298        C299   1.398       .  A
C298        H307   1.083       .  S
C299        C300   1.404       .  A
C299        H308   1.083       .  S
C300        C301   1.404   1_565  A
C301        C302   1.398       .  A
C301        H309   1.083       .  S
C302        H310   1.083       .  S
C311        C312   1.403       .  A
C311        C316   1.404   1_565  A
C312        C313   1.397       .  A
C312        H325   1.083       .  S
C313        C314   1.401   1_565  A
C313        H326   1.083       .  S
C314        C315   1.401       .  A
C314        C317   1.438       .  S
C315        C316   1.398       .  A
C315        H327   1.083       .  S
C316        H328   1.083       .  S
C317        C318   1.205       .  T
C318        C319   1.438       .  S
C319        C320   1.399       .  A
C319        C324   1.399       .  A
C320        C321   1.398   1_545  A
C320        H329   1.084   1_545  S
C321        C322   1.409   1_565  A
C321        H330   1.083       .  S
C322        C323   1.408       .  A
C323        C324   1.398       .  A
C323        H331   1.083       .  S
C324        H332   1.084       .  S
C333        C334   1.405       .  A
C333        C338   1.404   1_455  A
C334        C335   1.399       .  A
C334        H347   1.083       .  S
C335        C336   1.401       .  A
C335        H348   1.083       .  S
C336        C337   1.401   1_455  A
C336        C339   1.441       .  S
C337        C338   1.398       .  A
C337        H349   1.083       .  S
C338        H350   1.083       .  S
C339        C340   1.207       .  T
C340        C341   1.441       .  S
C341        C342   1.400       .  A
C341        C346   1.399       .  A
C342        C343   1.399       .  A
C342        H351   1.084   1_455  S
C343        C344   1.409       .  A
C343        H352   1.083   1_455  S
C344        C345   1.409       .  A
C345        C346   1.399       .  A
C345        H353   1.083       .  S
C346        H354   1.084       .  S
C355        C356   1.406       .  A
C355        C360   1.404   1_455  A
C356        C357   1.398       .  A
C356        H369   1.083       .  S
C357        C358   1.400       .  A
C357        H370   1.083       .  S
C358        C359   1.400   1_455  A
C358        C361   1.438       .  S
C359        C360   1.397       .  A
C359        H371   1.083       .  S
C360        H372   1.083       .  S
C361        C362   1.205       .  T
C362        C363   1.438       .  S
C363        C364   1.400   1_455  A
C363        C368   1.399       .  A
C364        C365   1.399       .  A
C364        H373   1.084       .  S
C365        C366   1.407   1_655  A
C365        H374   1.083       .  S
C366        C367   1.408       .  A
C367        C368   1.398       .  A
C367        H375   1.083       .  S
C368        H376   1.084       .  S
C377        C378   1.404       .  A
C377        C382   1.405   1_655  A
C378        C379   1.399       .  A
C378        H391   1.083       .  S
C379        C380   1.401       .  A
C379        H392   1.083       .  S
C380        C381   1.401   1_655  A
C380        C383   1.442       .  S
C381        C382   1.399       .  A
C381        H393   1.083       .  S
C382        H394   1.083       .  S
C383        C384   1.207   1_655  T
C384        C385   1.442       .  S
C385        C386   1.401       .  A
C385        C390   1.400   1_455  A
C386        C387   1.399       .  A
C386        H395   1.083       .  S
C387        C388   1.405       .  A
C387        H396   1.083       .  S
C388        C389   1.406   1_455  A
C389        C390   1.399       .  A
C389        H397   1.083       .  S
C390        H398   1.083       .  S
C399        C400   1.405   1_655  A
C399        C404   1.406       .  A
C400        C401   1.399       .  A
C400        H413   1.083       .  S
C401        C402   1.401       .  A
C401        H414   1.083       .  S
C402        C403   1.400   1_455  A
C402        C405   1.441       .  S
C403        C404   1.399       .  A
C403        H415   1.083       .  S
C404        H416   1.083       .  S
C405        C406   1.207       .  T
C406        C407   1.441   1_455  S
C407        C408   1.401   1_655  A
C407        C412   1.401       .  A
C408        C409   1.399       .  A
C408        H417   1.083       .  S
C409        C410   1.405   1_455  A
C409        H418   1.083       .  S
C410        C411   1.405       .  A
C411        C412   1.399       .  A
C411        H419   1.083       .  S
C412        H420   1.083       .  S
