geometry optimzed in LAMMPS
_audit_creation_date              2020-11-30 
_audit_creation_method            'lammps2cif' 
_symmetry_space_group_name_H-M    'P1' 
_symmetry_Int_Tables_number       1 
_symmetry_cell_setting            triclinic 
loop_ 
_symmetry_equiv_pos_as_xyz 
  x,y,z 
_cell_length_a                    40.26951116 
_cell_length_b                    39.88515824237599 
_cell_length_c                    46.8081790598855 
_cell_angle_alpha                 90.641995399944 
_cell_angle_beta                  90.38286322098926 
_cell_angle_gamma                 90.52129667791887 
loop_ 
_atom_site_label 
_atom_site_type_symbol 
_atom_site_fract_x 
_atom_site_fract_y 
_atom_site_fract_z 
_atom_site_charge 
C1          C  0.14725127  0.94171319  0.53488737     0.86400
C2          C  0.13600597  0.97804462  0.53613022    -0.53800
C3          C  0.11109883  0.98665326  0.51747318     0.09300
C4          C  0.10141157  0.95685534  0.49683997     0.20300
C5          C  0.11568374  0.92007905  0.53601655    -0.54600
C6          C  0.09064133  0.92796108  0.51708281     0.09400
C7          C  0.15837258  0.93693196  0.50402010    -0.54100
C8          C  0.13517286  0.94458198  0.48394281     0.10000
H9          H  0.14719704  0.99484928  0.55178289     0.14500
H10         H  0.08243038  0.96308909  0.48056668     0.00300
H11         H  0.11432074  0.90021187  0.55145159     0.14800
H12         H  0.18192642  0.92653500  0.49754609     0.14600
C13         C  0.01407330  0.87596868  0.54147512     0.86400
C14         C  0.04985202  0.88794524  0.53938682    -0.53800
C15         C  0.05668244  0.91061012  0.51825866     0.09300
C16         C  0.02490752  0.91866432  0.50004184     0.20300
C17         C  0.99393649  0.90863554  0.54355755    -0.54600
C18         C  0.99952712  0.93158757  0.52241898     0.09400
C19         C  0.00465054  0.86245511  0.51196425    -0.54100
C20         C  0.00947879  0.88415927  0.49006748     0.10000
H21         H  0.06754890  0.87928321  0.55502506     0.14500
H22         H  0.02946126  0.93603409  0.48219217     0.00300
H23         H  0.97574385  0.91250357  0.55998740     0.14800
H24         H  0.99344730  0.83785298  0.50869806     0.14600
C25         C  0.94687515  0.01010683  0.54120443     0.86400
C26         C  0.95847054  0.97368407  0.54187849    -0.53800
C27         C  0.98243028  0.96520015  0.52229140     0.09300
C28         C  0.99148404  0.99473769  0.50250173     0.20300
C29         C  0.97849948  0.03175175  0.54249259    -0.54600
C30         C  0.00268751  0.02328343  0.52319854     0.09400
C31         C  0.93517059  0.01497638  0.51029449    -0.54100
C32         C  0.95797143  0.00677277  0.49009207     0.10000
H33         H  0.94822315  0.95675036  0.55747637     0.14500
H34         H  0.00969802  0.98841952  0.48580880     0.00300
H35         H  0.98077231  0.05225261  0.55769686     0.14800
H36         H  0.91170864  0.02601106  0.50417866     0.14600
C37         C  0.08184832  0.07516457  0.54291590     0.86400
C38         C  0.04633101  0.06110834  0.54529340    -0.53800
C39         C  0.03651164  0.03959642  0.52365698     0.09300
C40         C  0.06451525  0.03321610  0.50165069     0.20300
C41         C  0.10227154  0.04300047  0.54180031    -0.54600
C42         C  0.09425158  0.02061145  0.52004942     0.09400
C43         C  0.08353653  0.09004405  0.51332163    -0.54100
C44         C  0.07452295  0.06892257  0.49162871     0.10000
H45         H  0.03125960  0.06622989  0.56380127     0.14500
H46         H  0.05722599  0.01617326  0.48391908     0.00300
H47         H  0.12042064  0.03848164  0.55832275     0.14800
H48         H  0.09083698  0.11598173  0.50978835     0.14600
C49         C  0.00593090  0.08144098  0.96994605     0.86400
C50         C  0.04178157  0.06951918  0.96945691    -0.53800
C51         C  0.04998040  0.04569246  0.98926327     0.09300
C52         C  0.02044065  0.03690464  0.00907204     0.20300
C53         C  0.98491716  0.04900941  0.96835321    -0.54600
C54         C  0.99263697  0.02500448  0.98813448     0.09400
C55         C  0.99984298  0.09353890  0.00044308    -0.54100
C56         C  0.00776277  0.07103552  0.02104808     0.10000
H57         H  0.05885736  0.07983032  0.95405582     0.14500
H58         H  0.02661694  0.01878221  0.02595296     0.00300
H59         H  0.96492121  0.04619389  0.95304717     0.14800
H60         H  0.98843266  0.11735189  0.00555591     0.14600
C61         C  0.94291831  0.94457047  0.96702123     0.86400
C62         C  0.95480855  0.98097016  0.96625497    -0.53800
C63         C  0.97664839  0.99063550  0.98751225     0.09300
C64         C  0.98435571  0.96174436  0.00844465     0.20300
C65         C  0.97432904  0.92330144  0.96845385    -0.54600
C66         C  0.99750232  0.93302919  0.98872727     0.09400
C67         C  0.92860171  0.94043408  0.99703267    -0.54100
C68         C  0.94947746  0.94956804  0.01885111     0.10000
H69         H  0.94656516  0.99696683  0.94918156     0.14500
H70         H  0.00139724  0.96890959  0.02611858     0.00300
H71         H  0.97724956  0.90228334  0.95418106     0.14800
H72         H  0.90408545  0.93027426  0.00132061     0.14600
C73         C  0.07802793  0.88291451  0.97091089     0.86400
C74         C  0.04252776  0.89660525  0.96759762    -0.53800
C75         C  0.03226403  0.91837211  0.98887831     0.09300
C76         C  0.06045671  0.92588638  0.01114744     0.20300
C77         C  0.09877184  0.91507218  0.97212286    -0.54600
C78         C  0.09066260  0.93846721  0.99277813     0.09400
C79         C  0.07866994  0.86863374  0.00070059    -0.54100
C80         C  0.07000026  0.89013558  0.02197909     0.10000
H81         H  0.02776070  0.89118601  0.94895207     0.14500
H82         H  0.05321011  0.94353755  0.02837550     0.00300
H83         H  0.11790375  0.91835013  0.95627734     0.14800
H84         H  0.08589783  0.84289962  0.00476259     0.14600
C85         C  0.13979419  0.01895161  0.97048715     0.86400
C86         C  0.13081823  0.98162750  0.97285681    -0.53800
C87         C  0.10790499  0.97312322  0.99354340     0.09300
C88         C  0.09801691  0.00477933  0.01185587     0.20300
C89         C  0.10548829  0.03450662  0.96722242    -0.54600
C90         C  0.08372561  0.02925908  0.98921803     0.09400
C91         C  0.15242743  0.02877704  0.99997182    -0.54100
C92         C  0.13147312  0.02213814  0.02187005     0.10000
H93         H  0.14016371  0.96431598  0.95700384     0.14500
H94         H  0.08082882  0.99923092  0.02960664     0.00300
H95         H  0.09868312  0.04673959  0.94771023     0.14800
H96         H  0.17664051  0.04050222  0.00328811     0.14600
C97         C  0.57282415  0.57719782  0.03402483     0.86400
C98         C  0.53755989  0.56372462  0.03871484    -0.53800
C99         C  0.52631945  0.54006074  0.01907788     0.09300
C100        C  0.55317571  0.53128980  0.99645511     0.20300
C101        C  0.59325570  0.54449814  0.03402788    -0.54600
C102        C  0.58345208  0.52006027  0.01459646     0.09400
C103        C  0.57378244  0.58872636  0.00322723    -0.54100
C104        C  0.56371387  0.56547308  0.98347001     0.10000
H105        H  0.52336787  0.57280862  0.05662600     0.14500
H106        H  0.54494203  0.51276690  0.98009368     0.00300
H107        H  0.61229769  0.54031580  0.04972809     0.14800
H108        H  0.58276183  0.61347729  0.99734401     0.14600
C109        C  0.43817956  0.51257957  0.04360301     0.86400
C110        C  0.44998843  0.47580589  0.04391858    -0.53800
C111        C  0.47069175  0.46633851  0.02177804     0.09300
C112        C  0.47756202  0.49573664  0.00119374     0.20300
C113        C  0.47118352  0.53164258  0.04333388    -0.54600
C114        C  0.49209623  0.52408296  0.02109398     0.09400
C115        C  0.42293731  0.51687886  0.01420804    -0.54100
C116        C  0.44231684  0.50734339  0.99199464     0.10000
H117        H  0.44375953  0.45972157  0.06142216     0.14500
H118        H  0.49346657  0.48896954  0.98288367     0.00300
H119        H  0.47793495  0.54770541  0.06100264     0.14800
H120        H  0.39769954  0.52569490  0.01122568     0.14600
C121        C  0.63488080  0.43934069  0.03057945     0.86400
C122        C  0.62331291  0.47610766  0.03295828    -0.53800
C123        C  0.59911120  0.48547146  0.01371322     0.09300
C124        C  0.58861077  0.45583991  0.99353641     0.20300
C125        C  0.60234490  0.41997538  0.03378886    -0.54600
C126        C  0.57757813  0.42767162  0.01467473     0.09400
C127        C  0.64510602  0.43520080  0.99978669    -0.54100
C128        C  0.62189733  0.44362650  0.98008732     0.10000
H129        H  0.63178057  0.49235938  0.04998911     0.14500
H130        H  0.56968721  0.46241305  0.97738048     0.00300
H131        H  0.59993034  0.40194998  0.05069139     0.14800
H132        H  0.66985795  0.42700982  0.99387697     0.14600
C133        C  0.49973056  0.37551621  0.03763525     0.86400
C134        C  0.53555268  0.38897558  0.03797642    -0.53800
C135        C  0.54334848  0.41164331  0.01687964     0.09300
C136        C  0.51276863  0.41963758  0.99778280     0.20300
C137        C  0.47971951  0.40796847  0.03997401    -0.54600
C138        C  0.48598266  0.43169248  0.01965042     0.09400
C139        C  0.49340485  0.36258200  0.00754046    -0.54100
C140        C  0.50043126  0.38464164  0.98649694     0.10000
H141        H  0.55237168  0.38169922  0.05469885     0.14500
H142        H  0.51819804  0.43754789  0.98052483     0.00300
H143        H  0.46358866  0.41215395  0.05787733     0.14800
H144        H  0.48504785  0.33704037  0.00308031     0.14600
In145      In  0.63232061  0.26838174  0.66041156     1.36900
C146        C  0.67601038  0.29091114  0.69865447     0.77500
O147        O  0.60417334  0.29038497  0.69707710    -0.60900
O148        O  0.59393450  0.24001189  0.68606467    -0.51900
C149        C  0.60710024  0.30675192  0.61823463     0.70200
O150        O  0.63652344  0.30938624  0.62739813    -0.46700
C151        C  0.66296923  0.21329417  0.64116258     0.74900
O152        O  0.66302016  0.30961104  0.68012667    -0.58600
O153        O  0.63301631  0.21332301  0.64887601    -0.48700
O154        O  0.66940356  0.26027305  0.69528199    -0.55000
C155        C  0.58956520  0.26361774  0.70378806     0.85100
O156        O  0.59098177  0.28333419  0.62980777    -0.56900
O157        O  0.67559715  0.24227447  0.63937737    -0.60200
In158      In  0.80958613  0.07323870  0.66993949     1.36900
C159        C  0.84109314  0.10958757  0.70938097     0.77500
O160        O  0.79023651  0.11755820  0.64579742    -0.60900
O161        O  0.75563919  0.08046555  0.65808491    -0.51900
C162        C  0.84989686  0.05365973  0.62771133     0.70200
O163        O  0.85843052  0.07496668  0.64655474    -0.46700
C164        C  0.79539058  0.02214245  0.70511024     0.74900
O165        O  0.85471309  0.08623915  0.69559917    -0.58600
O166        O  0.78890791  0.05220633  0.71090505    -0.48700
O167        O  0.81193837  0.11604727  0.70135704    -0.55000
C168        C  0.76015927  0.10885150  0.64702528     0.85100
O169        O  0.82034003  0.04327760  0.63008237    -0.56900
O170        O  0.80642333  0.01813430  0.68024330    -0.60200
In171      In  0.94162541  0.21598128  0.83946510     1.36900
C172        C  0.90481534  0.18119425  0.80240564     0.77500
O173        O  0.89848997  0.23573402  0.86506843    -0.60900
O174        O  0.93129369  0.27099891  0.84717056    -0.51900
C175        C  0.96308878  0.17411714  0.88006152     0.70200
O176        O  0.94310117  0.16575483  0.86047839    -0.46700
C177        C  0.98903265  0.23484402  0.80251627     0.74900
O178        O  0.93463744  0.17423855  0.80783472    -0.58600
O179        O  0.99554632  0.22535431  0.82759489    -0.48700
O180        O  0.89334003  0.20495152  0.81713902    -0.55000
C181        C  0.90438983  0.26618709  0.86027214     0.85100
O182        O  0.97123769  0.20480936  0.87969379    -0.56900
O183        O  0.95844552  0.23728925  0.79772890    -0.60200
In184      In  0.74577148  0.39687704  0.84242566     1.36900
C185        C  0.72945972  0.35817712  0.79805819     0.77500
O186        O  0.72234726  0.43496229  0.81411704    -0.60900
O187        O  0.77405143  0.43885345  0.82114110    -0.51900
C188        C  0.70388426  0.41701493  0.88384246     0.70200
O189        O  0.69834203  0.39204189  0.86769912    -0.46700
C190        C  0.79846336  0.36304201  0.86196593     0.74900
O191        O  0.71218062  0.35888989  0.82048809    -0.58600
O192        O  0.79915468  0.39410369  0.85726785    -0.48700
O193        O  0.75577690  0.37524158  0.79938345    -0.55000
C194        C  0.74924454  0.44897888  0.80717436     0.85100
O195        O  0.73195724  0.43036667  0.87974311    -0.56900
O196        O  0.76974411  0.35026468  0.86040063    -0.60200
In197      In  0.63335716  0.67609936  0.84468452     1.36900
C198        C  0.67585015  0.66276647  0.80313788     0.77500
O199        O  0.60179346  0.65096112  0.81125875    -0.60900
O200        O  0.59104247  0.70137693  0.82171043    -0.51900
C201        C  0.60963145  0.63444777  0.88525928     0.70200
O202        O  0.63561103  0.62881776  0.87119136    -0.46700
C203        C  0.66577354  0.73033806  0.86559929     0.74900
O204        O  0.67244660  0.64377149  0.82441808    -0.58600
O205        O  0.63543694  0.73045003  0.85871310    -0.48700
O206        O  0.65882403  0.68904028  0.80426234    -0.55000
C207        C  0.58510042  0.67657555  0.80537460     0.85100
O208        O  0.59683364  0.66239686  0.87948083    -0.56900
O209        O  0.67806294  0.70133543  0.86569951    -0.60200
In210      In  0.80991391  0.87608489  0.83431212     1.36900
C211        C  0.83271920  0.83163730  0.79660709     0.77500
O212        O  0.79294326  0.83230496  0.86100093    -0.60900
O213        O  0.75620160  0.86359421  0.84416478    -0.51900
C214        C  0.84939832  0.90255987  0.87564314     0.70200
O215        O  0.85879031  0.88086185  0.85783056    -0.46700
C216        C  0.79983828  0.92551618  0.79680769     0.74900
O217        O  0.84937973  0.84196784  0.81789490    -0.58600
O218        O  0.78020806  0.92018992  0.81721502    -0.48700
O219        O  0.80374655  0.84332216  0.79514201    -0.55000
C220        C  0.76235781  0.83729534  0.85787553     0.85100
O221        O  0.81962488  0.91119853  0.87205798    -0.56900
O222        O  0.82504172  0.90713828  0.79709918    -0.60200
In223      In  0.94866879  0.74089763  0.67122214     1.36900
C224        C  0.90080832  0.76184523  0.70631113     0.77500
O225        O  0.91057322  0.71674047  0.64204456    -0.60900
O226        O  0.94151796  0.68470577  0.66530697    -0.51900
C227        C  0.97343384  0.78213358  0.63111928     0.70200
O228        O  0.94984529  0.78921328  0.64743726    -0.46700
C229        C  0.99687949  0.73901736  0.71111955     0.74900
O230        O  0.90768080  0.77639503  0.68332461    -0.58600
O231        O  0.99280193  0.71592957  0.69265800    -0.48700
O232        O  0.91710092  0.73546150  0.71028274    -0.55000
C233        C  0.91680373  0.68697336  0.64887542     0.85100
O234        O  0.98417908  0.75273147  0.63446735    -0.56900
O235        O  0.97812582  0.76356846  0.70726918    -0.60200
In236      In  0.75157313  0.56990398  0.66018104     1.36900
C237        C  0.73481078  0.61438667  0.69979264     0.77500
O238        O  0.72290594  0.53870115  0.69097909    -0.60900
O239        O  0.77452889  0.53087621  0.68840519    -0.51900
C240        C  0.71425341  0.55051973  0.61476275     0.70200
O241        O  0.71235968  0.57899114  0.62661569    -0.46700
C242        C  0.80772925  0.59630206  0.64016734     0.74900
O243        O  0.71571245  0.60667167  0.67919263    -0.58600
O244        O  0.80587403  0.56623779  0.64829013    -0.48700
O245        O  0.76331796  0.60188105  0.69827498    -0.55000
C246        C  0.74799378  0.52513797  0.70187838     0.85100
O247        O  0.73598398  0.53209860  0.62596060    -0.56900
O248        O  0.78039782  0.61142675  0.64031359    -0.60200
In249      In  0.45927730  0.26424683  0.84095476     1.36900
C250        C  0.42205150  0.27800609  0.79571955     0.77500
O251        O  0.49854238  0.28891413  0.81508845    -0.60900
O252        O  0.50129145  0.23626479  0.82006508    -0.51900
C253        C  0.47729474  0.30484759  0.88474434     0.70200
O254        O  0.45513235  0.31207193  0.86670677    -0.46700
C255        C  0.42393990  0.21274340  0.86048372     0.74900
O256        O  0.42269086  0.29677044  0.81766993    -0.58600
O257        O  0.45418986  0.21043201  0.85393502    -0.48700
O258        O  0.43881422  0.25176884  0.79779622    -0.55000
C259        C  0.51249881  0.26203586  0.80781294     0.85100
O260        O  0.48952799  0.27614863  0.88071490    -0.56900
O261        O  0.41282247  0.24215561  0.85992429    -0.60200
In262      In  0.27695665  0.06928117  0.83748450     1.36900
C263        C  0.24097428  0.10347928  0.80038778     0.77500
O264        O  0.29849515  0.11546617  0.85826945    -0.60900
O265        O  0.33090922  0.07518501  0.84952129    -0.51900
C266        C  0.23801523  0.05112214  0.88106362     0.70200
O267        O  0.23229219  0.07545645  0.86490768    -0.46700
C268        C  0.29479318  0.02392470  0.79820013     0.74900
O269        O  0.23236683  0.07525502  0.80969548    -0.58600
O270        O  0.30273753  0.05438121  0.79719754    -0.48700
O271        O  0.26774697  0.11458700  0.81106663    -0.55000
C272        C  0.32799263  0.10543566  0.85712956     0.85100
O273        O  0.26480432  0.03628959  0.87539011    -0.56900
O274        O  0.27978182  0.01592883  0.82077692    -0.60200
In275      In  0.33929512  0.37764782  0.66018220     1.36900
C276        C  0.35703465  0.33152556  0.69739857     0.77500
O277        O  0.36525312  0.40648627  0.69500968    -0.60900
O278        O  0.31466927  0.41698180  0.68778088    -0.51900
C279        C  0.37899671  0.40259242  0.61921935     0.70200
O280        O  0.38282029  0.37420096  0.63025278    -0.46700
C281        C  0.28440116  0.34839266  0.63893068     0.74900
O282        O  0.37512435  0.33977165  0.67659817    -0.58600
O283        O  0.28499894  0.37829676  0.64808118    -0.48700
O284        O  0.32879358  0.34462900  0.69712315    -0.55000
C285        C  0.33995261  0.42175535  0.70350767     0.85100
O286        O  0.35347306  0.41744949  0.62812951    -0.56900
O287        O  0.31271545  0.33539727  0.63731699    -0.60200
In288      In  0.13559311  0.21294588  0.67662892     1.36900
C289        C  0.17140354  0.17875372  0.71375186     0.77500
O290        O  0.18003570  0.23051253  0.65256360    -0.60900
O291        O  0.14413004  0.26667409  0.66298776    -0.51900
C292        C  0.11587665  0.17283838  0.63370783     0.70200
O293        O  0.13920212  0.16586821  0.65060298    -0.46700
C294        C  0.09032153  0.23159884  0.71513083     0.74900
O295        O  0.14343716  0.16872146  0.70461598    -0.58600
O296        O  0.08256395  0.21695508  0.69194530    -0.48700
O297        O  0.18112574  0.20581107  0.70295628    -0.55000
C298        C  0.17235765  0.26100214  0.65253268     0.85100
O299        O  0.10245473  0.20077457  0.63873756    -0.56900
O300        O  0.12059995  0.23925473  0.71715439    -0.60200
In301      In  0.33038672  0.55335650  0.84465727     1.36900
C302        C  0.34584824  0.59561939  0.80365670     0.77500
O303        O  0.35721349  0.52004587  0.81412995    -0.60900
O304        O  0.30719777  0.50789801  0.82281966    -0.51900
C305        C  0.36911847  0.53533844  0.88891138     0.70200
O306        O  0.37620714  0.55879750  0.87221751    -0.46700
C307        C  0.27743298  0.58818903  0.86152680     0.74900
O308        O  0.36388333  0.59179689  0.82559137    -0.58600
O309        O  0.27553553  0.55768329  0.85410553    -0.48700
O310        O  0.31945671  0.57855775  0.80352876    -0.55000
C311        C  0.33246506  0.50182617  0.80782417     0.85100
O312        O  0.34115072  0.52187121  0.88360765    -0.56900
O313        O  0.30680792  0.59910854  0.86391286    -0.60200
In314      In  0.14281855  0.74504612  0.84062644     1.36900
C315        C  0.17846333  0.78001406  0.80340686     0.77500
O316        O  0.18450122  0.72199234  0.86584793    -0.60900
O317        O  0.15080856  0.68903898  0.84531094    -0.51900
C318        C  0.12234705  0.78468644  0.88373133     0.70200
O319        O  0.14772062  0.79102640  0.86901914    -0.46700
C320        C  0.09378900  0.73101314  0.80345714     0.74900
O321        O  0.14998206  0.78858750  0.81153885    -0.58600
O322        O  0.12379750  0.72510240  0.79831924    -0.48700
O323        O  0.18950607  0.75482362  0.81612064    -0.55000
C324        C  0.17768685  0.69207411  0.85916972     0.85100
O325        O  0.10863831  0.75692043  0.87755914    -0.56900
O326        O  0.08854384  0.74121687  0.82862729    -0.60200
In327      In  0.27675662  0.87849063  0.66941799     1.36900
C328        C  0.24035193  0.84682541  0.70796923     0.77500
O329        O  0.29358633  0.82901942  0.65233892    -0.60900
O330        O  0.32968785  0.86754866  0.65695027    -0.51900
C331        C  0.24090875  0.89832900  0.62426929     0.70200
O332        O  0.22948883  0.88039911  0.64394198    -0.46700
C333        C  0.29724725  0.92543896  0.70694493     0.74900
O334        O  0.23394476  0.87605628  0.69984313    -0.58600
O335        O  0.30638276  0.89545282  0.70783777    -0.48700
O336        O  0.26413714  0.83334244  0.69499670    -0.55000
C337        C  0.32394445  0.83696509  0.65137711     0.85100
O338        O  0.27140738  0.90524938  0.62709256    -0.56900
O339        O  0.28076524  0.93230489  0.68479980    -0.60200
In340      In  0.45016078  0.67411232  0.66798209     1.36900
C341        C  0.40983584  0.65883014  0.71026175     0.77500
O342        O  0.48658720  0.64867951  0.69640721    -0.60900
O343        O  0.49184202  0.70123774  0.69120215    -0.51900
C344        C  0.46772044  0.63447166  0.62391821     0.70200
O345        O  0.44332373  0.62834571  0.63976819    -0.46700
C346        C  0.41514712  0.72572471  0.64866850     0.74900
O347        O  0.41331586  0.63995599  0.68863064    -0.58600
O348        O  0.44566774  0.72839514  0.65488841    -0.48700
O349        O  0.42610858  0.68580450  0.70947030    -0.55000
C350        C  0.50131635  0.67530168  0.70410080     0.85100
O351        O  0.48281549  0.66151701  0.63028584    -0.56900
O352        O  0.40430270  0.69611086  0.64941302    -0.60200
C353        C  0.63774738  0.51541863  0.46169300     0.86400
C354        C  0.62892790  0.47809966  0.46473304    -0.53800
C355        C  0.60900191  0.46962674  0.48767386     0.09300
C356        C  0.60051898  0.50117510  0.50629316     0.20300
C357        C  0.60314415  0.53081240  0.46115740    -0.54600
C358        C  0.58366213  0.52546201  0.48474328     0.09400
C359        C  0.65330081  0.52525778  0.49024375    -0.54100
C360        C  0.63478467  0.51816550  0.51359977     0.10000
H361        H  0.63530077  0.46095107  0.44773499     0.14500
H362        H  0.58533002  0.49557028  0.52534083     0.00300
H363        H  0.59403212  0.54221949  0.44203026     0.14800
H364        H  0.67779085  0.53684028  0.49190374     0.14600
C365        C  0.50344313  0.57690191  0.47084381     0.86400
C366        C  0.53915570  0.56480700  0.46762062    -0.53800
C367        C  0.54964991  0.54148570  0.48717358     0.09300
C368        C  0.52193805  0.53265780  0.50909722     0.20300
C369        C  0.48367759  0.54351167  0.46998536    -0.54600
C370        C  0.49263319  0.52009139  0.48995213     0.09400
C371        C  0.50049826  0.58916868  0.50151420    -0.54100
C372        C  0.50993126  0.56684364  0.52169421     0.10000
H373        H  0.55431272  0.57436555  0.45054501     0.14500
H374        H  0.52976510  0.51472010  0.52563799     0.00300
H375        H  0.46600581  0.53801811  0.45321851     0.14800
H376        H  0.49025756  0.61352385  0.50698311     0.14600
C377        C  0.57991558  0.37925137  0.46867260     0.86400
C378        C  0.54418782  0.39165339  0.46716940    -0.53800
C379        C  0.53503326  0.41402360  0.48810473     0.09300
C380        C  0.56421026  0.42226005  0.50924889     0.20300
C381        C  0.60222251  0.41020506  0.47034663    -0.54600
C382        C  0.59350509  0.43453952  0.48973837     0.09400
C383        C  0.58346209  0.36530166  0.49873103    -0.54100
C384        C  0.57505968  0.38681844  0.52035255     0.10000
H385        H  0.52800053  0.38286246  0.45009563     0.14500
H386        H  0.55742280  0.44027772  0.52626558     0.00300
H387        H  0.62351214  0.41181580  0.45653391     0.14800
H388        H  0.59285806  0.34051461  0.50324011     0.14600
C389        C  0.44318457  0.43835738  0.47127394     0.86400
C390        C  0.45337931  0.47530849  0.47072527    -0.53800
C391        C  0.47731624  0.48521210  0.49023081     0.09300
C392        C  0.48798440  0.45604380  0.51000749     0.20300
C393        C  0.47575109  0.41861279  0.46975873    -0.54600
C394        C  0.50020870  0.42835226  0.48902163     0.09400
C395        C  0.43231986  0.43253265  0.50208726    -0.54100
C396        C  0.45499359  0.44177018  0.52242198     0.10000
H397        H  0.44216256  0.49155918  0.45513429     0.14500
H398        H  0.50623851  0.46331916  0.52673855     0.00300
H399        H  0.47842741  0.39854266  0.45431229     0.14800
H400        H  0.40915937  0.42046847  0.50800310     0.14600
In401      In  0.83239696  0.90210643  0.16342220     1.36900
C402        C  0.85186961  0.85712233  0.20155613     0.77500
O403        O  0.85901721  0.93216196  0.19696587    -0.60900
O404        O  0.80921035  0.94480315  0.18853438    -0.51900
C405        C  0.87087435  0.92328194  0.11949311     0.70200
O406        O  0.87538159  0.89641845  0.13280325    -0.46700
C407        C  0.77630069  0.87156243  0.14524022     0.74900
O408        O  0.86890728  0.86463950  0.17994410    -0.58600
O409        O  0.77666451  0.90089201  0.15561886    -0.48700
O410        O  0.82398197  0.87093942  0.20216018    -0.55000
C411        C  0.83425421  0.94902896  0.20457597     0.85100
O412        O  0.84563723  0.93892607  0.12811534    -0.56900
O413        O  0.80481252  0.85961961  0.14153474    -0.60200
In414      In  0.63622343  0.71839919  0.16582275     1.36900
C415        C  0.67907879  0.69207053  0.20323906     0.77500
O416        O  0.67874023  0.74449749  0.14306000    -0.60900
O417        O  0.64277727  0.77490453  0.16223734    -0.51900
C418        C  0.61812975  0.67797669  0.12100277     0.70200
O419        O  0.64481311  0.67605320  0.13481047    -0.46700
C420        C  0.58520769  0.72259385  0.20245295     0.74900
O421        O  0.66588872  0.67571673  0.18285425    -0.58600
O422        O  0.58795684  0.74212064  0.18151651    -0.48700
O423        O  0.67086642  0.72249523  0.20405176    -0.55000
C424        C  0.67029769  0.77386212  0.14970862     0.85100
O425        O  0.60045737  0.70214897  0.12941275    -0.56900
O426        O  0.60690400  0.70015081  0.20305914    -0.60200
In427      In  0.77220015  0.57230500  0.32704507     1.36900
C428        C  0.74961647  0.61393145  0.28689789     0.77500
O429        O  0.79314371  0.61894385  0.34749664    -0.60900
O430        O  0.82709656  0.58047093  0.33903378    -0.51900
C431        C  0.73314934  0.55068895  0.37012001     0.70200
O432        O  0.72465548  0.57196466  0.35185739    -0.46700
C433        C  0.77699307  0.51958699  0.29166891     0.74900
O434        O  0.73799064  0.61315660  0.31182392    -0.58600
O435        O  0.80216280  0.53497988  0.30160000    -0.48700
O436        O  0.77325057  0.59411908  0.28296020    -0.55000
C437        C  0.82313016  0.61036383  0.34735394     0.85100
O438        O  0.76246342  0.54029819  0.36671339    -0.56900
O439        O  0.74976018  0.52961544  0.30155969    -0.60200
In440      In  0.95249640  0.77449175  0.34115196     1.36900
C441        C  0.91668703  0.79597942  0.29726945     0.77500
O442        O  0.99131584  0.79723702  0.31377784    -0.60900
O443        O  0.99238734  0.74464814  0.31954883    -0.51900
C444        C  0.97047674  0.81241772  0.38697493     0.70200
O445        O  0.94233407  0.81397298  0.37511998    -0.46700
C446        C  0.91647967  0.72114232  0.35704524     0.74900
O447        O  0.92302919  0.81443750  0.31875787    -0.58600
O448        O  0.94754609  0.71971146  0.35367402    -0.48700
O449        O  0.92718900  0.76652853  0.29898369    -0.55000
C450        C  0.00371721  0.76959720  0.30626602     0.85100
O451        O  0.98887041  0.79018154  0.37632480    -0.56900
O452        O  0.90513516  0.75030457  0.35495687    -0.60200
In453      In  0.29800317  0.57028779  0.17308437     1.36900
C454        C  0.33415144  0.60225036  0.21256995     0.77500
O455        O  0.27820382  0.61546556  0.15023091    -0.60900
O456        O  0.24388211  0.57722331  0.16018459    -0.51900
C457        C  0.33866856  0.55035288  0.13078475     0.70200
O458        O  0.34200015  0.57772131  0.14428932    -0.46700
C459        C  0.27956789  0.52370786  0.21074515     0.74900
O460        O  0.34304356  0.57498361  0.20133229    -0.58600
O461        O  0.28986382  0.51660639  0.18602528    -0.48700
O462        O  0.30768069  0.61390658  0.20232462    -0.55000
C463        C  0.24829982  0.60612425  0.15009523     0.85100
O464        O  0.31350922  0.53362992  0.13831536    -0.56900
O465        O  0.27572072  0.55466813  0.21491264    -0.60200
In466      In  0.12607865  0.76971875  0.16052696     1.36900
C467        C  0.17135616  0.79116939  0.19845637     0.77500
O468        O  0.09662568  0.79704617  0.19326901    -0.60900
O469        O  0.08816903  0.74499229  0.18884344    -0.51900
C470        C  0.10076304  0.80807496  0.11846244     0.70200
O471        O  0.12962100  0.81147399  0.12877495    -0.46700
C472        C  0.15421853  0.71277425  0.14221770     0.74900
O473        O  0.16451411  0.80738198  0.17620130    -0.58600
O474        O  0.12426438  0.71428557  0.14975982    -0.48700
O475        O  0.15713141  0.76300057  0.19954753    -0.55000
C476        C  0.08276564  0.77139328  0.20320387     0.85100
O477        O  0.08521676  0.78332728  0.12858120    -0.56900
O478        O  0.16808724  0.74112861  0.14015138    -0.60200
In479      In  0.25183456  0.88982968  0.34208016     1.36900
C480        C  0.23186213  0.84916973  0.29976762     0.77500
O481        O  0.22830659  0.92398525  0.31105620    -0.60900
O482        O  0.27992312  0.93019907  0.31879905    -0.51900
C483        C  0.21159830  0.91103125  0.38457179     0.70200
O484        O  0.21019225  0.88202780  0.37360748    -0.46700
C485        C  0.30606191  0.85890098  0.36168092     0.74900
O486        O  0.21454671  0.85429078  0.32173798    -0.58600
O487        O  0.30590137  0.88969500  0.35591941    -0.48700
O488        O  0.26007459  0.86291312  0.30052990    -0.55000
C489        C  0.25510663  0.93789256  0.30368013     0.85100
O490        O  0.23494539  0.92859720  0.37467427    -0.56900
O491        O  0.27770073  0.84528834  0.36053788    -0.60200
In492      In  0.44499796  0.70964206  0.33613414     1.36900
C493        C  0.40556723  0.67456671  0.30139018     0.77500
O494        O  0.40250122  0.73068295  0.36108187    -0.60900
O495        O  0.43658334  0.76541947  0.34444583    -0.51900
C496        C  0.46326793  0.66984641  0.37952470     0.70200
O497        O  0.44334283  0.66130900  0.35996346    -0.46700
C498        C  0.49191245  0.72383373  0.29704272     0.74900
O499        O  0.43348548  0.66397667  0.30951974    -0.58600
O500        O  0.49847246  0.71850115  0.32298917    -0.48700
O501        O  0.39734939  0.70220562  0.31240622    -0.55000
C502        C  0.40956250  0.76107590  0.35751333     0.85100
O503        O  0.47500139  0.69911857  0.37661744    -0.56900
O504        O  0.46126246  0.72448405  0.29191104    -0.60200
In505      In  0.30013396  0.38196921  0.34153168     1.36900
C506        C  0.33702736  0.34910083  0.30375952     0.77500
O507        O  0.28009089  0.33622753  0.36343802    -0.60900
O508        O  0.24564953  0.37284805  0.35140549    -0.51900
C509        C  0.34108431  0.40035248  0.38483527     0.70200
O510        O  0.34887731  0.38037539  0.36507601    -0.46700
C511        C  0.28186473  0.42959682  0.30463214     0.74900
O512        O  0.31085765  0.33664187  0.31414085    -0.58600
O513        O  0.27839299  0.39864761  0.29997133    -0.48700
O514        O  0.34440431  0.37767143  0.31365812    -0.55000
C515        C  0.24993098  0.34425660  0.36192613     0.85100
O516        O  0.31157348  0.41067805  0.38291439    -0.56900
O517        O  0.29226534  0.43646113  0.32954165    -0.60200
In518      In  0.11545040  0.18716797  0.34865921     1.36900
C519        C  0.15473929  0.16728365  0.30669735     0.77500
O520        O  0.07797318  0.16238600  0.31999547    -0.60900
O521        O  0.07554477  0.21520547  0.32499511    -0.51900
C522        C  0.09491084  0.14865380  0.39183422     0.70200
O523        O  0.12036063  0.14282071  0.37714569    -0.46700
C524        C  0.15259472  0.23814943  0.36947335     0.74900
O525        O  0.14948717  0.14963495  0.32847213    -0.58600
O526        O  0.12235795  0.24158334  0.36276872    -0.48700
O527        O  0.14119544  0.19554259  0.30736963    -0.55000
C528        C  0.06474636  0.18923472  0.31210837     0.85100
O529        O  0.08029908  0.17523630  0.38484072    -0.56900
O530        O  0.16214061  0.20827286  0.36807181    -0.60200
In531      In  0.44956447  0.24921847  0.17766696     1.36900
C532        C  0.41356214  0.27768740  0.21851779     0.77500
O533        O  0.40036332  0.23022789  0.16255810    -0.60900
O534        O  0.43927649  0.19525358  0.16342987    -0.51900
C535        C  0.46321437  0.28414547  0.13043275     0.70200
O536        O  0.44098048  0.29158348  0.14796760    -0.46700
C537        C  0.50362815  0.24238798  0.21064900     0.74900
O538        O  0.42643489  0.29372234  0.19830659    -0.58600
O539        O  0.48701604  0.21757373  0.20136959    -0.48700
O540        O  0.41950253  0.24673417  0.21794668    -0.55000
C541        C  0.40879094  0.20020610  0.15879982     0.85100
O542        O  0.47893923  0.25795203  0.13689746    -0.56900
O543        O  0.49392240  0.27004026  0.20110347    -0.60200
In544      In  0.24654265  0.07080719  0.16851267     1.36900
C545        C  0.22322334  0.10626092  0.21224889     0.77500
O546        O  0.22479621  0.02969769  0.19430209    -0.60900
O547        O  0.27720647  0.03147592  0.19015129    -0.51900
C548        C  0.20725325  0.05535696  0.12360809     0.70200
O549        O  0.20654312  0.08308626  0.13666855    -0.46700
C550        C  0.29842139  0.10769892  0.15137551     0.74900
O551        O  0.20618788  0.09952592  0.19017058    -0.58600
O552        O  0.29985439  0.07614784  0.15305999    -0.48700
O553        O  0.25259164  0.09592674  0.21133801    -0.55000
C554        C  0.25236227  0.01807128  0.20195653     0.85100
O555        O  0.22968625  0.03594905  0.13230632    -0.56900
O556        O  0.27006474  0.11916415  0.15630417    -0.60200
In557      In  0.65618816  0.25292628  0.33651337     1.36900
C558        C  0.69797877  0.27549201  0.29749197     0.77500
O559        O  0.70213352  0.23612082  0.35961121    -0.60900
O560        O  0.66527303  0.19961362  0.34998094    -0.51900
C561        C  0.62907839  0.28883515  0.37888626     0.70200
O562        O  0.64998581  0.30064995  0.36169609    -0.46700
C563        C  0.60630593  0.24746224  0.29860198     0.74900
O564        O  0.69224826  0.29146022  0.32032043    -0.58600
O565        O  0.61876563  0.22202585  0.31032460    -0.48700
O566        O  0.68386604  0.24720585  0.29582180    -0.55000
C567        C  0.69393522  0.20558562  0.36008902     0.85100
O568        O  0.62272906  0.25810462  0.37479481    -0.56900
O569        O  0.61770029  0.27481779  0.30814914    -0.60200
In570      In  0.84655072  0.07269656  0.35112946     1.36900
C571        C  0.85842422  0.11331295  0.30853710     0.77500
O572        O  0.87005344  0.04032199  0.31842340    -0.60900
O573        O  0.81941607  0.03084796  0.32727981    -0.51900
C574        C  0.88876495  0.05163313  0.39164436     0.70200
O575        O  0.89191808  0.07929285  0.37915791    -0.46700
C576        C  0.79539592  0.10624297  0.37213156     0.74900
O577        O  0.87973127  0.10861133  0.32804817    -0.58600
O578        O  0.79427688  0.07496358  0.36759799    -0.48700
O579        O  0.83083539  0.09901271  0.31213565    -0.55000
C580        C  0.84402099  0.02453307  0.31145057     0.85100
O581        O  0.86284583  0.03555576  0.38425211    -0.56900
O582        O  0.82415672  0.11883732  0.37055801    -0.60200
In583      In  0.94545257  0.18269476  0.16346450     1.36900
C584        C  0.90161743  0.16646271  0.20258801     0.77500
O585        O  0.97588737  0.15974847  0.19818416    -0.60900
O586        O  0.98374878  0.21111017  0.18984347    -0.51900
C587        C  0.96489400  0.14071990  0.12165695     0.70200
O588        O  0.93634303  0.14046345  0.13234879    -0.46700
C589        C  0.91812160  0.23636313  0.14009939     0.74900
O590        O  0.91171246  0.14565123  0.18419310    -0.58600
O591        O  0.94830376  0.23575750  0.14753123    -0.48700
O592        O  0.91142223  0.19615369  0.19896536    -0.55000
C593        C  0.98957820  0.18683473  0.20615008     0.85100
O594        O  0.98367851  0.16332732  0.13214719    -0.56900
O595        O  0.90338850  0.20842077  0.14151498    -0.60200
In596      In  0.77422133  0.37792869  0.15719541     1.36900
C597        C  0.75419414  0.33826614  0.19870557     0.77500
O598        O  0.79404101  0.33125239  0.13662886    -0.60900
O599        O  0.82764067  0.37153689  0.14394888    -0.51900
C600        C  0.73606951  0.39818822  0.11399110     0.70200
O601        O  0.73060746  0.37172668  0.12766475    -0.46700
C602        C  0.77808048  0.42920347  0.19399061     0.74900
O603        O  0.73600993  0.34502689  0.17753020    -0.58600
O604        O  0.80294859  0.41969370  0.17979699    -0.48700
O605        O  0.78301023  0.35075250  0.19791558    -0.55000
C606        C  0.82366977  0.34142085  0.13592458     0.85100
O607        O  0.76220897  0.41361772  0.12161177    -0.56900
O608        O  0.75125790  0.41459491  0.18717695    -0.60200
C609        C  0.87316657  0.26485659  0.11378214    -0.05900
C610        C  0.89986550  0.26744532  0.13318449     0.00100
C611        C  0.90419058  0.29743109  0.14951155    -0.08500
C612        C  0.88035589  0.32284237  0.14700732    -0.05900
C613        C  0.85176643  0.31858210  0.13002216     0.00100
C614        C  0.84891998  0.28998281  0.11186924    -0.08400
C615        C  0.81975333  0.28495341  0.09153487     0.62000
H616        H  0.87013599  0.24187162  0.10144622     0.12700
H617        H  0.88232240  0.34503602  0.16046087     0.12700
C618        C  0.93197635  0.30157312  0.17146069     0.62200
F619        F  0.82671967  0.26129515  0.07058711    -0.23000
F620        F  0.81242196  0.31471080  0.07805236    -0.20300
F621        F  0.79229349  0.27403461  0.10649715    -0.20000
F622        F  0.96237142  0.30024911  0.15795897    -0.20000
F623        F  0.92993499  0.27635418  0.19145703    -0.20300
F624        F  0.93031368  0.33193170  0.18599886    -0.23000
C625        C  0.85313942  0.11649110  0.25654550    -0.05900
C626        C  0.86561514  0.13101440  0.28195271     0.00100
C627        C  0.88514295  0.16050436  0.28100427    -0.08500
C628        C  0.89401287  0.17291868  0.25418467    -0.05900
C629        C  0.88428513  0.15640772  0.22871938     0.00100
C630        C  0.86223839  0.12865908  0.22970902    -0.08400
C631        C  0.84825907  0.11199931  0.20281974     0.62000
H632        H  0.83757176  0.09425842  0.25782013     0.12700
H633        H  0.91065305  0.19435335  0.25305612     0.12700
C634        C  0.89689221  0.17850488  0.30800649     0.62200
F635        F  0.82269574  0.08981001  0.20895308    -0.23000
F636        F  0.87277552  0.09424621  0.18893083    -0.20300
F637        F  0.83577396  0.13614436  0.18478779    -0.20000
F638        F  0.92148062  0.16010102  0.32111665    -0.20000
F639        F  0.87059378  0.18250145  0.32658488    -0.20300
F640        F  0.90969580  0.21001458  0.30220383    -0.23000
C641        C  0.70869271  0.27656925  0.24588539    -0.05900
C642        C  0.71678410  0.28944108  0.27318096     0.00100
C643        C  0.74003355  0.31627026  0.27578830    -0.08500
C644        C  0.75279169  0.33035408  0.25069463    -0.05900
C645        C  0.74235302  0.31923192  0.22349331     0.00100
C646        C  0.72044941  0.29146834  0.22088006    -0.08400
C647        C  0.70860276  0.27808547  0.19202555     0.62000
H648        H  0.69120298  0.25586268  0.24410514     0.12700
H649        H  0.76983212  0.35149302  0.25214461     0.12700
C650        C  0.75144087  0.33020050  0.30459478     0.62200
F651        F  0.69288363  0.24722014  0.19435032    -0.23000
F652        F  0.73523222  0.27414507  0.17380909    -0.20300
F653        F  0.68625234  0.30024864  0.18028174    -0.20000
F654        F  0.76198064  0.30431911  0.32176697    -0.20000
F655        F  0.72566560  0.34692725  0.31770726    -0.20300
F656        F  0.77763528  0.35267372  0.30193104    -0.23000
C657        C  0.71178279  0.14637699  0.35742932    -0.05900
C658        C  0.71700543  0.17855485  0.36918692     0.00100
C659        C  0.74536949  0.18437968  0.38682853    -0.08500
C660        C  0.76930309  0.15891755  0.38921375    -0.05900
C661        C  0.76548821  0.12772394  0.37523253     0.00100
C662        C  0.73548413  0.12079399  0.36000423    -0.08400
C663        C  0.72909639  0.08736952  0.34492374     0.62000
H664        H  0.68972142  0.14196621  0.34455170     0.12700
H665        H  0.79212864  0.16389555  0.40094613     0.12700
C666        C  0.75093796  0.21732210  0.40278952     0.62200
F667        F  0.69836102  0.08617913  0.33150952    -0.23000
F668        F  0.72988438  0.06183412  0.36465726    -0.20300
F669        F  0.75294841  0.08193493  0.32427721    -0.20000
F670        F  0.72188473  0.22714758  0.41596602    -0.20000
F671        F  0.76111042  0.24180412  0.38399406    -0.20300
F672        F  0.77507352  0.21446099  0.42381224    -0.23000
C673        C  0.55409666  0.26739756  0.23252950    -0.05900
C674        C  0.53146884  0.24045009  0.23174037     0.00100
C675        C  0.53416360  0.21501322  0.25265229    -0.08500
C676        C  0.55941266  0.21785474  0.27369412    -0.05900
C677        C  0.58112427  0.24562167  0.27510453     0.00100
C678        C  0.57875332  0.27069055  0.25379612    -0.08400
C679        C  0.60218393  0.30082195  0.25296116     0.62000
H680        H  0.55179745  0.28658208  0.21647408     0.12700
H681        H  0.56174204  0.19880082  0.28986027     0.12700
C682        C  0.50971425  0.18584240  0.25372878     0.62200
F683        F  0.59775598  0.31961984  0.22856353    -0.23000
F684        F  0.63471991  0.29014179  0.25329782    -0.20300
F685        F  0.59662299  0.32165547  0.27621874    -0.20000
F686        F  0.51221312  0.16652074  0.22913459    -0.20000
F687        F  0.47771286  0.19785301  0.25616736    -0.20300
F688        F  0.51566404  0.16530064  0.27681759    -0.23000
C689        C  0.35963784  0.11758066  0.15337173    -0.05900
C690        C  0.32788695  0.12987253  0.14669225     0.00100
C691        C  0.32479675  0.16396734  0.13875770    -0.08500
C692        C  0.35267212  0.18521805  0.14124661    -0.05900
C693        C  0.38363384  0.17384832  0.15095761     0.00100
C694        C  0.38781352  0.13894173  0.15541454    -0.08400
C695        C  0.42130879  0.12424760  0.16309551     0.62000
H696        H  0.36192460  0.09132937  0.15859703     0.12700
H697        H  0.34990562  0.21162615  0.13677990     0.12700
C698        C  0.29224341  0.17856266  0.12823423     0.62200
F699        F  0.41995129  0.08961578  0.16471045    -0.23000
F700        F  0.43193861  0.13666180  0.18933867    -0.20300
F701        F  0.44422864  0.13247912  0.14237543    -0.20000
F702        F  0.27074615  0.18286282  0.15087226    -0.20000
F703        F  0.27792879  0.15739218  0.10792867    -0.20300
F704        F  0.29693793  0.20950403  0.11567991    -0.23000
C705        C  0.00232984  0.16460490  0.25409823    -0.05900
C706        C  0.00837203  0.18960030  0.23368461     0.00100
C707        C  0.03037831  0.21648744  0.24085395    -0.08500
C708        C  0.04656913  0.21636241  0.26765082    -0.05900
C709        C  0.04177651  0.19040731  0.28726231     0.00100
C710        C  0.01850073  0.16454794  0.28083319    -0.08400
C711        C  0.01000762  0.13746600  0.30227095     0.62000
H712        H  0.98467230  0.14477692  0.24895225     0.12700
H713        H  0.06442981  0.23593194  0.27302225     0.12700
C714        C  0.03766853  0.24474016  0.22028361     0.62200
F715        F  0.98242414  0.11879465  0.29379850    -0.23000
F716        F  0.00310217  0.15205111  0.32850184    -0.20300
F717        F  0.03629374  0.11570715  0.30520074    -0.20000
F718        F  0.00925605  0.26323269  0.21581104    -0.20000
F719        F  0.04861578  0.23162857  0.19457068    -0.20300
F720        F  0.06203397  0.26641676  0.23071371    -0.23000
C721        C  0.18442102  0.14778727  0.23145397    -0.05900
C722        C  0.20926889  0.12436311  0.23705620     0.00100
C723        C  0.21790478  0.11703113  0.26576296    -0.08500
C724        C  0.20015404  0.13269896  0.28785752    -0.05900
C725        C  0.17444584  0.15520076  0.28220241     0.00100
C726        C  0.16667569  0.16344522  0.25348995    -0.08400
C727        C  0.13852901  0.18689966  0.24577276     0.62000
H728        H  0.17844342  0.15314576  0.20938866     0.12700
H729        H  0.20582543  0.12699839  0.30991584     0.12700
C730        C  0.24450363  0.09175338  0.27325365     0.62200
F731        F  0.13423753  0.18952544  0.21650972    -0.23000
F732        F  0.14507730  0.21874173  0.25648462    -0.20300
F733        F  0.10916786  0.17481132  0.25696974    -0.20000
F734        F  0.27507929  0.10303919  0.26389714    -0.20000
F735        F  0.23699615  0.06116949  0.26050373    -0.20300
F736        F  0.24693704  0.08680020  0.30242689    -0.23000
C737        C  0.35139359  0.29700347  0.27761223    -0.05900
C738        C  0.35713829  0.33153367  0.28182155     0.00100
C739        C  0.38104937  0.34818027  0.26466997    -0.08500
C740        C  0.39899298  0.32918791  0.24474184    -0.05900
C741        C  0.39366106  0.29461668  0.24087108     0.00100
C742        C  0.36908584  0.27813372  0.25730635    -0.08400
C743        C  0.36097711  0.24107305  0.25334840     0.62000
H744        H  0.33292525  0.28468210  0.29062867     0.12700
H745        H  0.41771045  0.34140398  0.23191320     0.12700
C746        C  0.38746826  0.38582587  0.26657092     0.62200
F747        F  0.33350237  0.23146202  0.26900798    -0.23000
F748        F  0.38762367  0.22216411  0.26231727    -0.20300
F749        F  0.35410470  0.23405216  0.22488806    -0.20000
F750        F  0.40115370  0.39411411  0.29292136    -0.20000
F751        F  0.35803391  0.40288300  0.26268082    -0.20300
F752        F  0.40938067  0.39666870  0.24587271    -0.23000
C753        C  0.23194149  0.28943624  0.38130674    -0.05900
C754        C  0.22256480  0.32055034  0.37012105     0.00100
C755        C  0.18819887  0.32639127  0.36514977    -0.08500
C756        C  0.16555599  0.29927884  0.36744909    -0.05900
C757        C  0.17584665  0.26698973  0.37516686     0.00100
C758        C  0.20921477  0.26272860  0.38445481    -0.08400
C759        C  0.22153118  0.23012579  0.39704823     0.62000
H760        H  0.25785779  0.28543930  0.38639747     0.12700
H761        H  0.13981884  0.30274530  0.36144487     0.12700
C762        C  0.17519570  0.36048439  0.35662995     0.62200
F763        F  0.25191612  0.23441785  0.41070655    -0.23000
F764        F  0.22537578  0.20633705  0.37564037    -0.20300
F765        F  0.19919229  0.21852008  0.41706461    -0.20000
F766        F  0.18539691  0.36795728  0.32926331    -0.20000
F767        F  0.18687536  0.38477349  0.37558851    -0.20300
F768        F  0.14082829  0.36143543  0.35707557    -0.23000
C769        C  0.28113483  0.99926295  0.24548247    -0.05900
C770        C  0.25532113  0.99392538  0.22553738     0.00100
C771        C  0.23100431  0.96893640  0.23067943    -0.08500
C772        C  0.23220362  0.95171304  0.25658935    -0.05900
C773        C  0.25688942  0.95823143  0.27736726     0.00100
C774        C  0.28243973  0.98184415  0.27148810    -0.08400
C775        C  0.31028223  0.98958868  0.29265677     0.62000
H776        H  0.29955384  0.01844102  0.24108154     0.12700
H777        H  0.21347830  0.93277615  0.26079316     0.12700
C778        C  0.20416784  0.95986035  0.20888463     0.62200
F779        F  0.33040497  0.01569321  0.28363442    -0.23000
F780        F  0.33003848  0.96169237  0.29588295    -0.20300
F781        F  0.29707064  0.99870044  0.31878777    -0.20000
F782        F  0.21827045  0.95518447  0.18228295    -0.20000
F783        F  0.18094681  0.98509285  0.20756457    -0.20300
F784        F  0.18762966  0.93051687  0.21588018    -0.23000
C785        C  0.39201842  0.82063774  0.35328032    -0.05900
C786        C  0.38654750  0.78895429  0.36541353     0.00100
C787        C  0.35741850  0.78396986  0.38195230    -0.08500
C788        C  0.33286740  0.80889195  0.38201358    -0.05900
C789        C  0.33663752  0.83892185  0.36700510     0.00100
C790        C  0.36767016  0.84593804  0.35391997    -0.08400
C791        C  0.37460864  0.87902831  0.33923665     0.62000
H792        H  0.41477743  0.82477122  0.34161623     0.12700
H793        H  0.30950959  0.80421843  0.39266384     0.12700
C794        C  0.35127353  0.75228644  0.39890554     0.62200
F795        F  0.40675360  0.88090296  0.32900867    -0.23000
F796        F  0.37053884  0.90523972  0.35846126    -0.20300
F797        F  0.35312350  0.88277879  0.31633859    -0.20000
F798        F  0.37941847  0.74436946  0.41445499    -0.20000
F799        F  0.34295887  0.72604082  0.38059805    -0.20300
F800        F  0.32551558  0.75623897  0.41807649    -0.23000
C801        C  0.18712996  0.78839173  0.24937885    -0.05900
C802        C  0.19128998  0.80455998  0.22299153     0.00100
C803        C  0.21164622  0.83377789  0.22183079    -0.08500
C804        C  0.22563306  0.84644536  0.24745042    -0.05900
C805        C  0.21935111  0.83149021  0.27392730     0.00100
C806        C  0.20054352  0.80151460  0.27495942    -0.08400
C807        C  0.19472024  0.78335345  0.30283893     0.62000
H808        H  0.17177265  0.76601516  0.25019345     0.12700
H809        H  0.24039177  0.86928474  0.24719803     0.12700
C810        C  0.21850770  0.85189479  0.19407148     0.62200
F811        F  0.18014099  0.75213784  0.29839142    -0.23000
F812        F  0.17391333  0.80196371  0.32007042    -0.20300
F813        F  0.22467878  0.77871854  0.31682283    -0.20000
F814        F  0.18970184  0.86637379  0.18401597    -0.20000
F815        F  0.23037814  0.82946844  0.17391662    -0.20300
F816        F  0.24203347  0.87717216  0.19763664    -0.23000
C817        C  0.27332396  0.51104867  0.26233705    -0.05900
C818        C  0.27512954  0.49872127  0.23404187     0.00100
C819        C  0.27547561  0.46350440  0.22938194    -0.08500
C820        C  0.27591818  0.44226316  0.25320542    -0.05900
C821        C  0.27663708  0.45463624  0.28150533     0.00100
C822        C  0.27444165  0.48976075  0.28620968    -0.08400
C823        C  0.27360649  0.50502105  0.31607530     0.62000
H824        H  0.27269356  0.53791575  0.26578028     0.12700
H825        H  0.27738143  0.41544934  0.24971056     0.12700
C826        C  0.27605875  0.44798839  0.19958807     0.62200
F827        F  0.26748465  0.53911962  0.31559639    -0.23000
F828        F  0.30385340  0.50052137  0.32959106    -0.20300
F829        F  0.24866018  0.48996344  0.33170646    -0.20000
F830        F  0.30633429  0.45450624  0.18694193    -0.20000
F831        F  0.25071529  0.46105705  0.18313852    -0.20300
F832        F  0.27169703  0.41353067  0.20010402    -0.23000
C833        C  0.34937912  0.65441901  0.23790977    -0.05900
C834        C  0.35262509  0.61951235  0.23591827     0.00100
C835        C  0.37151455  0.60240008  0.25683027    -0.08500
C836        C  0.38790247  0.62143597  0.27819666    -0.05900
C837        C  0.38512923  0.65646149  0.27979687     0.00100
C838        C  0.36509335  0.67334895  0.25958885    -0.08400
C839        C  0.36069949  0.71117989  0.26024763     0.62000
H840        H  0.33438014  0.66692397  0.22205047     0.12700
H841        H  0.40309854  0.60902310  0.29398356     0.12700
C842        C  0.37359119  0.56436042  0.25740571     0.62200
F843        F  0.34232536  0.72225864  0.23715709    -0.23000
F844        F  0.39136456  0.72705640  0.25949486    -0.20300
F845        F  0.34413370  0.72050860  0.28483668    -0.20000
F846        F  0.39049849  0.55277083  0.23372024    -0.20000
F847        F  0.34195495  0.55058527  0.25757909    -0.20300
F848        F  0.39014998  0.55320930  0.28147436    -0.23000
C849        C  0.20135033  0.68112413  0.12136365    -0.05900
C850        C  0.17307133  0.68082619  0.13881877     0.00100
C851        C  0.16684011  0.65211330  0.15589377    -0.08500
C852        C  0.19084155  0.62653098  0.15685335    -0.05900
C853        C  0.22064696  0.62867067  0.14158472     0.00100
C854        C  0.22478559  0.65507360  0.12184643    -0.08400
C855        C  0.25431898  0.65695892  0.10198751     0.62000
H856        H  0.20583438  0.70269235  0.10800494     0.12700
H857        H  0.18759811  0.60576864  0.17130067     0.12700
C858        C  0.13627083  0.64919710  0.17460743     0.62200
F859        F  0.24639540  0.67455096  0.07756837    -0.23000
F860        F  0.26403787  0.62521362  0.09344574    -0.20300
F861        F  0.28048544  0.67310565  0.11577450    -0.20000
F862        F  0.10796686  0.65018881  0.15775525    -0.20000
F863        F  0.13589241  0.67522416  0.19438679    -0.20300
F864        F  0.13553409  0.61940763  0.18951881    -0.23000
C865        C  0.04359370  0.79723919  0.27434672    -0.05900
C866        C  0.02738171  0.76744037  0.28207460     0.00100
C867        C  0.03067109  0.73851833  0.26436904    -0.08500
C868        C  0.04858629  0.74130764  0.23874836    -0.05900
C869        C  0.06358215  0.77158238  0.23035070     0.00100
C870        C  0.06189092  0.79998521  0.24900929    -0.08400
C871        C  0.07929049  0.83316412  0.24285331     0.62000
H872        H  0.04120548  0.81890972  0.28828786     0.12700
H873        H  0.05078321  0.71960480  0.22483056     0.12700
C874        C  0.01486371  0.70499205  0.27179533     0.62200
F875        F  0.07450181  0.85673500  0.26434648    -0.23000
F876        F  0.06702058  0.84645895  0.21778336    -0.20300
F877        F  0.11313876  0.82822123  0.24060850    -0.20000
F878        F  0.02229940  0.68020849  0.25195804    -0.20000
F879        F  0.98069298  0.70793717  0.27261590    -0.20300
F880        F  0.02652537  0.69461645  0.29808013    -0.23000
C881        C  0.79939821  0.50226413  0.24479453    -0.05900
C882        C  0.77897092  0.49450665  0.26810440     0.00100
C883        C  0.75933435  0.46487433  0.26713481    -0.08500
C884        C  0.76021564  0.44452268  0.24245354    -0.05900
C885        C  0.77986529  0.45269873  0.21878830     0.00100
C886        C  0.80000186  0.48199519  0.21989839    -0.08400
C887        C  0.82060911  0.49279215  0.19453987     0.62000
H888        H  0.81401701  0.52517822  0.24583271     0.12700
H889        H  0.74533144  0.42177007  0.24144235     0.12700
C890        C  0.73815653  0.45417756  0.29219445     0.62200
F891        F  0.83562466  0.52376816  0.19919390    -0.23000
F892        F  0.80045806  0.49509428  0.17060081    -0.20300
F893        F  0.84532115  0.46971431  0.18942648    -0.20000
F894        F  0.71169319  0.47570243  0.29531560    -0.20000
F895        F  0.75717500  0.45465805  0.31688948    -0.20300
F896        F  0.72550452  0.42199447  0.28846837    -0.23000
C897        C  0.84059958  0.66491000  0.36842577    -0.05900
C898        C  0.85034823  0.63497006  0.35486152     0.00100
C899        C  0.88401723  0.63192418  0.34613569    -0.08500
C900        C  0.90556504  0.66001753  0.34930115    -0.05900
C901        C  0.89461133  0.69094252  0.36036714     0.00100
C902        C  0.86186836  0.69293939  0.37124314    -0.08400
C903        C  0.84840170  0.72484534  0.38468074     0.62000
H904        H  0.81517502  0.66700573  0.37555434     0.12700
H905        H  0.93074100  0.65862266  0.34143176     0.12700
C906        C  0.89709976  0.59996686  0.33251974     0.62200
F907        F  0.81943933  0.71881795  0.39961989    -0.23000
F908        F  0.84140979  0.74774679  0.36354383    -0.20300
F909        F  0.87135408  0.73848720  0.40373037    -0.20000
F910        F  0.88039016  0.59328225  0.30715282    -0.20000
F911        F  0.89272399  0.57350737  0.35099899    -0.20300
F912        F  0.93066397  0.60237134  0.32646980    -0.23000
C913        C  0.57204429  0.71847803  0.25357651    -0.05900
C914        C  0.56070834  0.72618213  0.22602134     0.00100
C915        C  0.52721342  0.73571340  0.22221948    -0.08500
C916        C  0.50598232  0.73570415  0.24618884    -0.05900
C917        C  0.51721190  0.72712188  0.27382057     0.00100
C918        C  0.55130520  0.71928730  0.27764091    -0.08400
C919        C  0.56613469  0.71120700  0.30667912     0.62000
H920        H  0.59770308  0.71141980  0.25610564     0.12700
H921        H  0.48009375  0.74200087  0.24333793     0.12700
C922        C  0.51364170  0.74464328  0.19297558     0.62200
F923        F  0.60000728  0.70576325  0.30532166    -0.23000
F924        F  0.55146368  0.68246007  0.31724845    -0.20300
F925        F  0.56118642  0.73778652  0.32536010    -0.20000
F926        F  0.51932268  0.71868288  0.17382731    -0.20000
F927        F  0.52912562  0.77347224  0.18345520    -0.20300
F928        F  0.47978593  0.75036718  0.19355733    -0.23000
C929        C  0.71651399  0.64580813  0.21587880    -0.05900
C930        C  0.70124629  0.67576979  0.22446684     0.00100
C931        C  0.70572061  0.68740403  0.25307011    -0.08500
C932        C  0.72229829  0.66662185  0.27261287    -0.05900
C933        C  0.73596659  0.63579858  0.26425799     0.00100
C934        C  0.73453754  0.62593394  0.23503982    -0.08400
C935        C  0.75121901  0.59433580  0.22397871     0.62000
H936        H  0.71392431  0.63781253  0.19378729     0.12700
H937        H  0.72453124  0.67420427  0.29483825     0.12700
C938        C  0.69267229  0.72102694  0.26333025     0.62200
F939        F  0.74523674  0.58894510  0.19511860    -0.23000
F940        F  0.73948349  0.56663476  0.23842649    -0.20300
F941        F  0.78521721  0.59725028  0.22781585    -0.20000
F942        F  0.65853845  0.72162470  0.26053933    -0.20000
F943        F  0.70658018  0.74649101  0.24740324    -0.20300
F944        F  0.70050348  0.72733530  0.29175151    -0.23000
C945        C  0.86637309  0.97485210  0.24424335    -0.05900
C946        C  0.83509037  0.96980455  0.23133944     0.00100
C947        C  0.80638088  0.98140207  0.24584539    -0.08500
C948        C  0.81042734  0.99781197  0.27256426    -0.05900
C949        C  0.84187641  0.00318750  0.28515517     0.00100
C950        C  0.87043474  0.99109853  0.27081937    -0.08400
C951        C  0.90534166  0.99508520  0.28311635     0.62000
H952        H  0.88813222  0.96594916  0.23315012     0.12700
H953        H  0.78889344  0.00744914  0.28355279     0.12700
C954        C  0.77162356  0.97674048  0.23350095     0.62200
F955        F  0.92818290  0.97601454  0.26826812    -0.23000
F956        F  0.90599964  0.98476315  0.31123986    -0.20300
F957        F  0.91538644  0.02827230  0.28158654    -0.20000
F958        F  0.76475729  0.94298258  0.22935729    -0.20000
F959        F  0.76927879  0.99326160  0.20775177    -0.20300
F960        F  0.74753140  0.98954854  0.25144692    -0.23000
C961        C  0.89747221  0.82405599  0.22204496    -0.05900
C962        C  0.86510442  0.83636739  0.22517896     0.00100
C963        C  0.84836600  0.83165690  0.25161088    -0.08500
C964        C  0.86611302  0.81795473  0.27464123    -0.05900
C965        C  0.89909135  0.80794647  0.27177822     0.00100
C966        C  0.91484343  0.80989434  0.24492687    -0.08400
C967        C  0.95055883  0.79904585  0.24088648     0.62000
H968        H  0.90979976  0.82695650  0.20173435     0.12700
H969        H  0.85454585  0.81539982  0.29534233     0.12700
C970        C  0.81233926  0.84132005  0.25609586     0.62200
F971        F  0.96138751  0.80388437  0.21321349    -0.23000
F972        F  0.95353244  0.76536143  0.24683464    -0.20300
F973        F  0.97096074  0.81758245  0.25901825    -0.20000
F974        F  0.79265769  0.82710919  0.23476463    -0.20000
F975        F  0.80938661  0.87583678  0.25586346    -0.20300
F976        F  0.80037818  0.83007811  0.28199214    -0.23000
C977        C  0.71966297  0.85553092  0.16112876    -0.05900
C978        C  0.74525147  0.85126732  0.14118271     0.00100
C979        C  0.74221325  0.82520327  0.12050661    -0.08500
C980        C  0.71615906  0.80151579  0.12302128    -0.05900
C981        C  0.69236533  0.80371300  0.14483816     0.00100
C982        C  0.69304177  0.83236977  0.16327887    -0.08400
C983        C  0.66698593  0.83782715  0.18616907     0.62000
H984        H  0.72181992  0.87609038  0.17635098     0.12700
H985        H  0.71493586  0.78028953  0.10840708     0.12700
C986        C  0.76603834  0.82266164  0.09562003     0.62200
F987        F  0.67234457  0.86738336  0.20137787    -0.23000
F988        F  0.66758056  0.81171841  0.20537046    -0.20300
F989        F  0.63588268  0.83959271  0.17358057    -0.20000
F990        F  0.79650792  0.81122684  0.10488311    -0.20000
F991        F  0.77003483  0.85385567  0.08336392    -0.20300
F992        F  0.75423400  0.80077002  0.07468403    -0.23000
C993        C  0.39919062  0.41280866  0.39939938    -0.05900
C994        C  0.36566818  0.41122194  0.40727330     0.00100
C995        C  0.35708824  0.42035477  0.43553264    -0.08500
C996        C  0.38265692  0.42943318  0.45506191    -0.05900
C997        C  0.41681837  0.42972069  0.44772351     0.00100
C998        C  0.42454012  0.42409723  0.41820370    -0.08400
C999        C  0.45818388  0.43014864  0.40430965     0.62000
H1000       H  0.40556868  0.40672876  0.37747464     0.12700
H1001       H  0.37543774  0.43769968  0.47608703     0.12700
C1002       C  0.32118249  0.42001768  0.44531526     0.62200
F1003       F  0.45366899  0.44622155  0.37851475    -0.23000
F1004       F  0.47315315  0.39966063  0.39897656    -0.20300
F1005       F  0.47943685  0.45025027  0.42024901    -0.20000
F1006       F  0.30700836  0.38884510  0.43985354    -0.20000
F1007       F  0.30356377  0.44426354  0.43094052    -0.20300
F1008       F  0.31847110  0.42659016  0.47430608    -0.23000
C1009       C  0.58801123  0.32045372  0.44762991    -0.05900
C1010       C  0.58830215  0.35550353  0.44342871     0.00100
C1011       C  0.59647593  0.36715583  0.41547800    -0.08500
C1012       C  0.61075119  0.34457072  0.39591056    -0.05900
C1013       C  0.61312560  0.31013569  0.40123239     0.00100
C1014       C  0.59991520  0.29753790  0.42700349    -0.08400
C1015       C  0.59873471  0.26021327  0.43308354     0.62000
H1016       H  0.57767596  0.31064344  0.46703198     0.12700
H1017       H  0.61912918  0.35394808  0.37549755     0.12700
C1018       C  0.59098073  0.40251591  0.40428668     0.62200
F1019       F  0.58645920  0.25356281  0.46000694    -0.23000
F1020       F  0.63035001  0.24706304  0.43151209    -0.20300
F1021       F  0.57820127  0.24418439  0.41333886    -0.20000
F1022       F  0.57030798  0.42184867  0.42089048    -0.20000
F1023       F  0.57642384  0.40053140  0.37743886    -0.20300
F1024       F  0.62128723  0.41879403  0.40190129    -0.23000
C1025       C  0.46052977  0.60170646  0.43659484    -0.05900
C1026       C  0.49261011  0.60403812  0.44902379     0.00100
C1027       C  0.51267739  0.63231725  0.44102147    -0.08500
C1028       C  0.50250102  0.65220671  0.41780877    -0.05900
C1029       C  0.47198338  0.64733668  0.40375735     0.00100
C1030       C  0.45001262  0.62225224  0.41400388    -0.08400
C1031       C  0.41527726  0.61710887  0.40153142     0.62000
H1032       H  0.44286949  0.58400453  0.44494961     0.12700
H1033       H  0.51862993  0.67238509  0.41080174     0.12700
C1034       C  0.54455455  0.64412569  0.45579772     0.62200
F1035       F  0.39641235  0.59499104  0.41739634    -0.23000
F1036       F  0.41744936  0.60409618  0.37409628    -0.20300
F1037       F  0.39863153  0.64730376  0.40099797    -0.20000
F1038       F  0.57110712  0.63838053  0.43790857    -0.20000
F1039       F  0.55064544  0.62913359  0.48158646    -0.20300
F1040       F  0.54275871  0.67825144  0.46122956    -0.23000
C1041       C  0.68532466  0.50148462  0.42757799    -0.05900
C1042       C  0.66133782  0.52513476  0.43660685     0.00100
C1043       C  0.66424741  0.55831037  0.42501034    -0.08500
C1044       C  0.68724863  0.56432043  0.40299549    -0.05900
C1045       C  0.71011676  0.54043469  0.39367218     0.00100
C1046       C  0.70946909  0.50842498  0.40647830    -0.08400
C1047       C  0.73372898  0.48140225  0.39766624     0.62000
H1048       H  0.68612357  0.47746730  0.43792924     0.12700
H1049       H  0.68797801  0.58873295  0.39308132     0.12700
C1050       C  0.64395471  0.58850252  0.43447528     0.62200
F1051       F  0.72739226  0.45128636  0.41111071    -0.23000
F1052       F  0.76572399  0.49142932  0.40473439    -0.20300
F1053       F  0.73140256  0.47582155  0.36852642    -0.20000
F1054       F  0.66039647  0.61831346  0.42875305    -0.20000
F1055       F  0.63840560  0.58860153  0.46345486    -0.20300
F1056       F  0.61418353  0.58879737  0.41965175    -0.23000
C1057       C  0.51234999  0.61197395  0.59317140    -0.05900
C1058       C  0.47851900  0.61174942  0.60018494     0.00100
C1059       C  0.45638065  0.59091804  0.58393493    -0.08500
C1060       C  0.46880891  0.57290495  0.56019464    -0.05900
C1061       C  0.50222597  0.57516308  0.55207145     0.00100
C1062       C  0.52453709  0.59406203  0.56941202    -0.08400
C1063       C  0.56088474  0.59642275  0.56208049     0.62000
H1064       H  0.52917825  0.62729964  0.60601507     0.12700
H1065       H  0.45201494  0.55865352  0.54644120     0.12700
C1066       C  0.41953678  0.58894190  0.59041044     0.62200
F1067       F  0.57895420  0.61342403  0.58303915    -0.23000
F1068       F  0.56446710  0.61335417  0.53671207    -0.20300
F1069       F  0.57363803  0.56448726  0.55931098    -0.20000
F1070       F  0.40609136  0.62073454  0.59050210    -0.20000
F1071       F  0.41489214  0.57437697  0.61676948    -0.20300
F1072       F  0.40235006  0.56984392  0.57024148    -0.23000
C1073       C  0.40440200  0.78658186  0.65429364    -0.05900
C1074       C  0.39318696  0.75517577  0.64399805     0.00100
C1075       C  0.36027694  0.75226805  0.63295399    -0.08500
C1076       C  0.33964406  0.78057582  0.63380341    -0.05900
C1077       C  0.35004252  0.81129298  0.64604562     0.00100
C1078       C  0.38331062  0.81457604  0.65613095    -0.08400
C1079       C  0.39624031  0.84664708  0.67029134     0.62000
H1080       H  0.42946545  0.78853073  0.66267025     0.12700
H1081       H  0.31428281  0.77832827  0.62616042     0.12700
C1082       C  0.34616135  0.71939389  0.62112295     0.62200
F1083       F  0.42892110  0.84384707  0.67926214    -0.23000
F1084       F  0.37737010  0.85420290  0.69407360    -0.20300
F1085       F  0.39473046  0.87271474  0.65111180    -0.20000
F1086       F  0.34135505  0.69700411  0.64311240    -0.20000
F1087       F  0.36770181  0.70589992  0.60126763    -0.20300
F1088       F  0.31581102  0.72372314  0.60765757    -0.23000
C1089       C  0.17792282  0.82167795  0.76487964    -0.05900
C1090       C  0.19588271  0.79718772  0.77971248     0.00100
C1091       C  0.22829750  0.78875295  0.77030650    -0.08500
C1092       C  0.24138471  0.80568438  0.74669418    -0.05900
C1093       C  0.22337228  0.83011713  0.73196864     0.00100
C1094       C  0.19084561  0.83809689  0.74095633    -0.08400
C1095       C  0.16927101  0.86294687  0.72511722     0.62000
H1096       H  0.15313364  0.82770233  0.77195824     0.12700
H1097       H  0.26624321  0.80000634  0.73955670     0.12700
C1098       C  0.24929811  0.76212953  0.78463090     0.62200
F1099       F  0.13703319  0.86317352  0.73524386    -0.23000
F1100       F  0.16788044  0.85447815  0.69638553    -0.20300
F1101       F  0.18222720  0.89497609  0.72845968    -0.20000
F1102       F  0.23380513  0.73114625  0.78197415    -0.20000
F1103       F  0.25386780  0.77019118  0.81321269    -0.20300
F1104       F  0.28041300  0.75941895  0.77241885    -0.23000
C1105       C  0.38118917  0.64094551  0.78543760    -0.05900
C1106       C  0.35610152  0.61717052  0.77972735     0.00100
C1107       C  0.34430228  0.61258582  0.75123983    -0.08500
C1108       C  0.36167251  0.62837835  0.72917313    -0.05900
C1109       C  0.38916915  0.64922141  0.73477394     0.00100
C1110       C  0.39778610  0.65758998  0.76344733    -0.08400
C1111       C  0.42568832  0.68202921  0.77110812     0.62000
H1112       H  0.38881393  0.64527248  0.80740761     0.12700
H1113       H  0.35465370  0.62357704  0.70711435     0.12700
C1114       C  0.31447113  0.59052383  0.74367297     0.62200
F1115       F  0.42919023  0.68651894  0.80036012    -0.23000
F1116       F  0.41930059  0.71308047  0.75952434    -0.20300
F1117       F  0.45530802  0.66989696  0.76072851    -0.20000
F1118       F  0.28700096  0.60142953  0.75861050    -0.20000
F1119       F  0.32098220  0.55751911  0.75031132    -0.20300
F1120       F  0.30664690  0.59170558  0.71484134    -0.23000
C1121       C  0.25197956  0.63907508  0.88275291    -0.05900
C1122       C  0.24824623  0.61076506  0.86485680     0.00100
C1123       C  0.21920168  0.60772853  0.84755744    -0.08500
C1124       C  0.19586457  0.63395252  0.84795071    -0.05900
C1125       C  0.20065171  0.66333476  0.86446811     0.00100
C1126       C  0.22876178  0.66538826  0.88303943    -0.08400
C1127       C  0.23491563  0.69523805  0.90288124     0.62000
H1128       H  0.27421317  0.64109413  0.89581835     0.12700
H1129       H  0.17431203  0.63236213  0.83405668     0.12700
C1130       C  0.21346314  0.57789974  0.82755658     0.62200
F1131       F  0.26049033  0.68940652  0.92206285    -0.23000
F1132       F  0.20661418  0.70174957  0.91851279    -0.20300
F1133       F  0.24351081  0.72312222  0.88716586    -0.20000
F1134       F  0.21108168  0.54886814  0.84331614    -0.20000
F1135       F  0.23944658  0.57526476  0.80848799    -0.20300
F1136       F  0.18444497  0.58082404  0.81178552    -0.23000
C1137       C  0.42295746  0.45909760  0.56467515    -0.05900
C1138       C  0.44580912  0.43662083  0.55284548     0.00100
C1139       C  0.44978651  0.40495410  0.56560773    -0.08500
C1140       C  0.42812222  0.39532094  0.58765083    -0.05900
C1141       C  0.40281293  0.41651295  0.59769107     0.00100
C1142       C  0.40161417  0.44987163  0.58717984    -0.08400
C1143       C  0.37753094  0.47557730  0.59883826     0.62000
H1144       H  0.42013607  0.48319097  0.55451169     0.12700
H1145       H  0.43025237  0.37049842  0.59655393     0.12700
C1146       C  0.47684475  0.38149585  0.55569064     0.62200
F1147       F  0.38327413  0.50703550  0.58766939    -0.23000
F1148       F  0.38101872  0.47822034  0.62820829    -0.20300
F1149       F  0.34532829  0.46616144  0.59186277    -0.20000
F1150       F  0.50707011  0.39790488  0.55837070    -0.20000
F1151       F  0.47175020  0.37219115  0.52745919    -0.20300
F1152       F  0.47802266  0.35262739  0.57182155    -0.23000
C1153       C  0.30807100  0.44631413  0.74359954    -0.05900
C1154       C  0.33915189  0.44146701  0.73075736     0.00100
C1155       C  0.36816032  0.45361703  0.74507655    -0.08500
C1156       C  0.36456798  0.47158643  0.77090530    -0.05900
C1157       C  0.33337423  0.47766898  0.78320329     0.00100
C1158       C  0.30455862  0.46382015  0.76973446    -0.08400
C1159       C  0.27013073  0.46763425  0.78236499     0.62000
H1160       H  0.28626439  0.43602491  0.73294232     0.12700
H1161       H  0.38646664  0.48160736  0.78159342     0.12700
C1162       C  0.40286076  0.44848524  0.73320166     0.62200
F1163       F  0.24616642  0.45046589  0.76651879    -0.23000
F1164       F  0.26150853  0.50111813  0.78306579    -0.20300
F1165       F  0.26975277  0.45489228  0.80973234    -0.20000
F1166       F  0.40442194  0.46037174  0.70558322    -0.20000
F1167       F  0.41059327  0.41476185  0.73340919    -0.20300
F1168       F  0.42690162  0.46533412  0.74920802    -0.23000
C1169       C  0.22429207  0.34129611  0.64817783    -0.05900
C1170       C  0.25284566  0.32895804  0.63460455     0.00100
C1171       C  0.25149763  0.29648248  0.62184275    -0.08500
C1172       C  0.22300295  0.27644053  0.62593973    -0.05900
C1173       C  0.19627362  0.28721439  0.64280252     0.00100
C1174       C  0.19623559  0.32081738  0.65315845    -0.08400
C1175       C  0.16825040  0.33441244  0.67142950     0.62000
H1176       H  0.22525530  0.36632949  0.65731931     0.12700
H1177       H  0.22252452  0.25099581  0.61760934     0.12700
C1178       C  0.28039903  0.28185621  0.60531429     0.62200
F1179       F  0.17319910  0.36781397  0.67877951    -0.23000
F1180       F  0.16619394  0.31641245  0.69646793    -0.20300
F1181       F  0.13849808  0.33192310  0.65659659    -0.20000
F1182       F  0.30523780  0.27253787  0.62408163    -0.20000
F1183       F  0.29268649  0.30523274  0.58640476    -0.20300
F1184       F  0.27089420  0.25369584  0.58960698    -0.23000
C1185       C  0.30221783  0.98423520  0.72393558    -0.05900
C1186       C  0.30283481  0.95006030  0.73066225     0.00100
C1187       C  0.30414134  0.94054811  0.75987364    -0.08500
C1188       C  0.30341151  0.96576914  0.78114658    -0.05900
C1189       C  0.30096129  0.99981102  0.77440356     0.00100
C1190       C  0.30107180  0.00943241  0.74521554    -0.08400
C1191       C  0.29814122  0.04583633  0.73622578     0.62000
H1192       H  0.30135431  0.99102057  0.70161581     0.12700
H1193       H  0.30349248  0.95897836  0.80347498     0.12700
C1194       C  0.30408076  0.90404540  0.76892359     0.62200
F1195       F  0.29646913  0.04901664  0.70682819    -0.23000
F1196       F  0.32555828  0.06391610  0.74582536    -0.20300
F1197       F  0.26957931  0.05957032  0.74745579    -0.20000
F1198       F  0.33199421  0.88821907  0.75852229    -0.20000
F1199       F  0.27580838  0.88804248  0.75853795    -0.20300
F1200       F  0.30431710  0.90081716  0.79834721    -0.23000
C1201       C  0.23449750  0.15382990  0.77074873    -0.05900
C1202       C  0.22215629  0.12209415  0.77837841     0.00100
C1203       C  0.19333587  0.10908130  0.76435743    -0.08500
C1204       C  0.17816093  0.12850314  0.74323565    -0.05900
C1205       C  0.19043532  0.16022105  0.73564191     0.00100
C1206       C  0.21922509  0.17332519  0.74968464    -0.08400
C1207       C  0.23390275  0.20767064  0.74302186     0.62000
H1208       H  0.25651135  0.16344119  0.78152499     0.12700
H1209       H  0.15620852  0.11886419  0.73238937     0.12700
C1210       C  0.17825519  0.07503620  0.77132259     0.62200
F1211       F  0.26130326  0.21538064  0.75996362    -0.23000
F1212       F  0.21046463  0.23221711  0.74783458    -0.20300
F1213       F  0.24403951  0.20844434  0.71485035    -0.20000
F1214       F  0.16877640  0.07457903  0.79967329    -0.20000
F1215       F  0.20109953  0.05003669  0.76613644    -0.20300
F1216       F  0.15035190  0.06778380  0.75487597    -0.23000
C1217       C  0.37110516  0.29733081  0.77192167    -0.05900
C1218       C  0.40387677  0.28646848  0.76939826     0.00100
C1219       C  0.41897964  0.28510858  0.74214150    -0.08500
C1220       C  0.40163423  0.29801359  0.71870262    -0.05900
C1221       C  0.36964865  0.31128096  0.72147672     0.00100
C1222       C  0.35307032  0.30872889  0.74816814    -0.08400
C1223       C  0.31678541  0.31782463  0.75202961     0.62000
H1224       H  0.35982916  0.29708114  0.79286896     0.12700
H1225       H  0.41359171  0.29897070  0.69808100     0.12700
C1226       C  0.45385318  0.27179251  0.73789839     0.62200
F1227       F  0.30511376  0.30856331  0.77859121    -0.23000
F1228       F  0.29762480  0.30115808  0.73163053    -0.20300
F1229       F  0.31271066  0.35206671  0.74958901    -0.20000
F1230       F  0.46433786  0.27477864  0.70992007    -0.20000
F1231       F  0.45471006  0.23817799  0.74474279    -0.20300
F1232       F  0.47589806  0.28959855  0.75509674    -0.23000
C1233       C  0.35416821  0.15344167  0.88292090    -0.05900
C1234       C  0.35644165  0.12874640  0.86140834     0.00100
C1235       C  0.38263862  0.13055085  0.84133235    -0.08500
C1236       C  0.40563933  0.15716476  0.84362472    -0.05900
C1237       C  0.40232649  0.18284287  0.86409965     0.00100
C1238       C  0.37660403  0.18076198  0.88452596    -0.08400
C1239       C  0.37280029  0.20709400  0.90786341     0.62000
H1240       H  0.33366649  0.15195319  0.89772599     0.12700
H1241       H  0.42525304  0.15940751  0.82802319     0.12700
C1242       C  0.38487253  0.10625670  0.81612772     0.62200
F1243       F  0.34947507  0.19754538  0.92787992    -0.23000
F1244       F  0.36267348  0.23699472  0.89614735    -0.20300
F1245       F  0.40282857  0.21196069  0.92188245    -0.20000
F1246       F  0.35569201  0.10683244  0.80036210    -0.20000
F1247       F  0.39024912  0.07416518  0.82587913    -0.20300
F1248       F  0.41062225  0.11444170  0.79795251    -0.23000
C1249       C  0.67719007  0.56636139  0.57459126    -0.05900
C1250       C  0.69251365  0.54051545  0.58981520     0.00100
C1251       C  0.68653317  0.50679892  0.58073675    -0.08500
C1252       C  0.66439855  0.50046553  0.55756649    -0.05900
C1253       C  0.64912775  0.52643474  0.54244427     0.00100
C1254       C  0.65618114  0.56009915  0.55095162    -0.08400
C1255       C  0.64493536  0.59027844  0.53410423     0.62000
H1256       H  0.68263653  0.59215503  0.58064350     0.12700
H1257       H  0.66070348  0.47514940  0.54968352     0.12700
C1258       C  0.70403986  0.47763764  0.59474759     0.62200
F1259       F  0.67082880  0.60132972  0.51729218    -0.23000
F1260       F  0.61783849  0.58306011  0.51686081    -0.20300
F1261       F  0.63617616  0.61604805  0.55249302    -0.20000
F1262       F  0.69605761  0.47667366  0.62343414    -0.20000
F1263       F  0.73802948  0.48118195  0.59175948    -0.20300
F1264       F  0.69514829  0.44719072  0.58241345    -0.23000
C1265       C  0.04334936  0.71012343  0.73601622    -0.05900
C1266       C  0.02078558  0.73691254  0.73569688     0.00100
C1267       C  0.02067177  0.75975444  0.75940816    -0.08500
C1268       C  0.04407577  0.75562553  0.78153182    -0.05900
C1269       C  0.06750776  0.72990633  0.78103575     0.00100
C1270       C  0.06667895  0.70612915  0.75834224    -0.08400
C1271       C  0.08976032  0.67625832  0.75796703     0.62000
H1272       H  0.04294861  0.69237740  0.71834121     0.12700
H1273       H  0.04506461  0.77342767  0.79916655     0.12700
C1274       C  0.99620924  0.78848988  0.76191135     0.62200
F1275       F  0.08014100  0.65260921  0.73760233    -0.23000
F1276       F  0.08951528  0.66086274  0.78431938    -0.20300
F1277       F  0.12171213  0.68672547  0.75181592    -0.20000
F1278       F  0.96406362  0.77609336  0.76077191    -0.20000
F1279       F  0.00123513  0.81091496  0.73999985    -0.20300
F1280       F  0.99977984  0.80606659  0.78745020    -0.23000
C1281       C  0.86810055  0.66547047  0.62155719    -0.05900
C1282       C  0.89458282  0.65828410  0.64019165     0.00100
C1283       C  0.89593917  0.62577705  0.65247616    -0.08500
C1284       C  0.86810941  0.60418196  0.64931068    -0.05900
C1285       C  0.83961390  0.61387512  0.63414923     0.00100
C1286       C  0.84092015  0.64349989  0.61783015    -0.08400
C1287       C  0.81282452  0.65367400  0.59812552     0.62000
H1288       H  0.86759130  0.68953585  0.61106692     0.12700
H1289       H  0.86730038  0.58081879  0.66086253     0.12700
C1290       C  0.92537058  0.61423838  0.67015632     0.62200
F1291       F  0.82447670  0.67399619  0.57653131    -0.23000
F1292       F  0.78935329  0.67117075  0.61355698    -0.20300
F1293       F  0.79809892  0.62576613  0.58535686    -0.20000
F1294       F  0.92678581  0.63188907  0.69573515    -0.20000
F1295       F  0.95445932  0.61923678  0.65517193    -0.20300
F1296       F  0.92312991  0.58041535  0.67636775    -0.23000
C1297       C  0.83727344  0.81552113  0.74564053    -0.05900
C1298       C  0.84669617  0.80961897  0.77408573     0.00100
C1299       C  0.87029421  0.78446436  0.77997257    -0.08500
C1300       C  0.88523446  0.76764876  0.75694362    -0.05900
C1301       C  0.87843022  0.77599956  0.72841957     0.00100
C1302       C  0.85295513  0.79935970  0.72252982    -0.08400
C1303       C  0.84230932  0.80751767  0.69222611     0.62000
H1304       H  0.81878181  0.83446352  0.74153976     0.12700
H1305       H  0.90408387  0.74916109  0.76122793     0.12700
C1306       C  0.88031354  0.77568222  0.81030599     0.62200
F1307       F  0.81330189  0.82590660  0.69172759    -0.23000
F1308       F  0.83661987  0.77817012  0.67685479    -0.20300
F1309       F  0.86676839  0.82621410  0.67906189    -0.20000
F1310       F  0.89880409  0.74660755  0.81116488    -0.20000
F1311       F  0.85230191  0.77076638  0.82675091    -0.20300
F1312       F  0.89942940  0.80135781  0.82206874    -0.23000
C1313       C  0.56779598  0.65265875  0.75855485    -0.05900
C1314       C  0.56288966  0.67742399  0.77977847     0.00100
C1315       C  0.53831934  0.70215411  0.77526849    -0.08500
C1316       C  0.52058511  0.70179637  0.74919108    -0.05900
C1317       C  0.52493207  0.67645754  0.72850324     0.00100
C1318       C  0.54879652  0.65128204  0.73324581    -0.08400
C1319       C  0.55443956  0.62317481  0.71168260     0.62000
H1320       H  0.58660690  0.63389546  0.76203186     0.12700
H1321       H  0.50173954  0.72045593  0.74535788     0.12700
C1322       C  0.52942143  0.72769616  0.79821279     0.62200
F1323       F  0.58232332  0.60466965  0.71830179    -0.23000
F1324       F  0.55880272  0.63636425  0.68474105    -0.20300
F1325       F  0.52740224  0.60155834  0.71129232    -0.20000
F1326       F  0.55543355  0.75009654  0.80243866    -0.20000
F1327       F  0.52261537  0.71139467  0.82348392    -0.20300
F1328       F  0.50157839  0.74588266  0.79083899    -0.23000
C1329       C  0.68519242  0.66775203  0.75131556    -0.05900
C1330       C  0.69561005  0.65426943  0.77754048     0.00100
C1331       C  0.72300858  0.63231571  0.77807875    -0.08500
C1332       C  0.73656382  0.62173825  0.75195963    -0.05900
C1333       C  0.72377153  0.63255156  0.72563787     0.00100
C1334       C  0.69900199  0.65739330  0.72522372    -0.08400
C1335       C  0.68719016  0.67296208  0.69756079     0.62000
H1336       H  0.66482752  0.68530744  0.75115658     0.12700
H1337       H  0.75603496  0.60316823  0.75196289     0.12700
C1338       C  0.73779960  0.61973098  0.80582704     0.62200
F1339       F  0.66900335  0.70170306  0.70260395    -0.23000
F1340       F  0.66725227  0.65044147  0.68255315    -0.20300
F1341       F  0.71422569  0.68171463  0.68103991    -0.20000
F1342       F  0.71673418  0.59624042  0.81772640    -0.20000
F1343       F  0.74255962  0.64623669  0.82478965    -0.20300
F1344       F  0.76830246  0.60480483  0.80152233    -0.23000
C1345       C  0.71748691  0.75835668  0.88405555    -0.05900
C1346       C  0.68657182  0.76141418  0.87013787     0.00100
C1347       C  0.67877829  0.79263165  0.85734845    -0.08500
C1348       C  0.70365211  0.81767922  0.85587625    -0.05900
C1349       C  0.73582427  0.81302444  0.86683054     0.00100
C1350       C  0.74203023  0.78392185  0.88324854    -0.08400
C1351       C  0.77429316  0.77941414  0.89971068     0.62000
H1352       H  0.72295876  0.73499505  0.89459645     0.12700
H1353       H  0.69861176  0.84052317  0.84443547     0.12700
C1354       C  0.64517820  0.79921183  0.84366092     0.62200
F1355       F  0.77214362  0.75311365  0.91868784    -0.23000
F1356       F  0.78161875  0.80821702  0.91537853    -0.20300
F1357       F  0.79991312  0.77271345  0.88104178    -0.20000
F1358       F  0.62033742  0.79438638  0.86350175    -0.20000
F1359       F  0.64025440  0.77781752  0.82052836    -0.20300
F1360       F  0.64265843  0.83176391  0.83394505    -0.23000
C1361       C  0.77767928  0.49466304  0.74013707    -0.05900
C1362       C  0.74727407  0.50642102  0.72940931     0.00100
C1363       C  0.71831940  0.50275615  0.74647797    -0.08500
C1364       C  0.72083113  0.48559557  0.77254107    -0.05900
C1365       C  0.75095424  0.47247257  0.78257229     0.00100
C1366       C  0.78026417  0.47821844  0.76654637    -0.08400
C1367       C  0.81419156  0.46679794  0.77671988     0.62000
H1368       H  0.79979215  0.49849409  0.72753863     0.12700
H1369       H  0.69877710  0.48159372  0.78519305     0.12700
C1370       C  0.68475177  0.51673851  0.73773368     0.62200
F1371       F  0.83930619  0.47676355  0.75853459    -0.23000
F1372       F  0.81478204  0.43222436  0.77811327    -0.20300
F1373       F  0.82103912  0.48056638  0.80339291    -0.20000
F1374       F  0.67470193  0.50264380  0.71192184    -0.20000
F1375       F  0.68697122  0.55123950  0.73538031    -0.20300
F1376       F  0.66031351  0.50983796  0.75754943    -0.23000
C1377       C  0.04833773  0.23459517  0.78801479    -0.05900
C1378       C  0.01504471  0.23996753  0.78016969     0.00100
C1379       C  0.00760548  0.24693707  0.75099028    -0.08500
C1380       C  0.03322604  0.24488909  0.73067013    -0.05900
C1381       C  0.06602259  0.23767085  0.73840437     0.00100
C1382       C  0.07408581  0.23360936  0.76775689    -0.08400
C1383       C  0.10936850  0.22670167  0.77772760     0.62000
H1384       H  0.05401264  0.23007010  0.81026309     0.12700
H1385       H  0.02771322  0.24839466  0.70822910     0.12700
C1386       C  0.97301131  0.25627203  0.74081563     0.62200
F1387       F  0.11125976  0.22199435  0.80695126    -0.23000
F1388       F  0.12974783  0.25360797  0.77122125    -0.20300
F1389       F  0.12102641  0.19801105  0.76446675    -0.20000
F1390       F  0.96162436  0.28320308  0.75672780    -0.20000
F1391       F  0.95158637  0.22922249  0.74351442    -0.20300
F1392       F  0.97270731  0.26558550  0.71239883    -0.23000
C1393       C  0.88267340  0.32257839  0.84950766    -0.05900
C1394       C  0.88018885  0.29364949  0.86621974     0.00100
C1395       C  0.85297870  0.29058723  0.88526783    -0.08500
C1396       C  0.82746414  0.31473403  0.88438092    -0.05900
C1397       C  0.82887703  0.34236938  0.86602892     0.00100
C1398       C  0.85759143  0.34696743  0.84895726    -0.08400
C1399       C  0.86094790  0.37623315  0.82863241     0.62000
H1400       H  0.90374683  0.32507220  0.83543898     0.12700
H1401       H  0.80562483  0.31163725  0.89750435     0.12700
C1402       C  0.85082714  0.26234728  0.90667895     0.62200
F1403       F  0.89000113  0.37488674  0.81302474    -0.23000
F1404       F  0.86126890  0.40606359  0.84397104    -0.20300
F1405       F  0.83463857  0.37587252  0.80948774    -0.20000
F1406       F  0.88084218  0.25949682  0.92098606    -0.20000
F1407       F  0.84322372  0.23242886  0.89284184    -0.20300
F1408       F  0.82653344  0.26821702  0.92687753    -0.23000
C1409       C  0.77692135  0.00265988  0.75289239    -0.05900
C1410       C  0.79226479  0.99488352  0.72666213     0.00100
C1411       C  0.80654134  0.96266257  0.72298548    -0.08500
C1412       C  0.80754511  0.94097463  0.74646454    -0.05900
C1413       C  0.79410263  0.94957927  0.77315283     0.00100
C1414       C  0.77702437  0.98032385  0.77611173    -0.08400
C1415       C  0.75978165  0.99003678  0.80368509     0.62000
H1416       H  0.76532122  0.02688524  0.75533634     0.12700
H1417       H  0.81942787  0.91685121  0.74421200     0.12700
C1418       C  0.82141463  0.95100128  0.69483815     0.62200
F1419       F  0.74539861  0.02137563  0.80209627    -0.23000
F1420       F  0.78247026  0.99070413  0.82599879    -0.20300
F1421       F  0.73484990  0.96704405  0.80938469    -0.20000
F1422       F  0.84889663  0.97050331  0.68844323    -0.20000
F1423       F  0.79794570  0.95330546  0.67324312    -0.20300
F1424       F  0.83152784  0.91793454  0.69576721    -0.23000
C1425       C  0.84927690  0.16099928  0.73850536    -0.05900
C1426       C  0.85728404  0.12724920  0.73364867     0.00100
C1427       C  0.87867792  0.11063791  0.75296878    -0.08500
C1428       C  0.89289924  0.12919564  0.77561306    -0.05900
C1429       C  0.88575029  0.16318215  0.77996308     0.00100
C1430       C  0.86312024  0.17944193  0.76148947    -0.08400
C1431       C  0.85426291  0.21618037  0.76540764     0.62000
H1432       H  0.83223958  0.17294106  0.72388133     0.12700
H1433       H  0.91002148  0.11724549  0.79017113     0.12700
C1434       C  0.88580952  0.07333895  0.75039825     0.62200
F1435       F  0.88280091  0.23576098  0.76554428    -0.23000
F1436       F  0.83768394  0.22059566  0.79093972    -0.20300
F1437       F  0.83383140  0.22739670  0.74368655    -0.20000
F1438       F  0.90435699  0.06708418  0.72619833    -0.20000
F1439       F  0.85626652  0.05537956  0.74884442    -0.20300
F1440       F  0.90354038  0.06175541  0.77366752    -0.23000
C1441       C  0.60694966  0.36223564  0.59391818    -0.05900
C1442       C  0.59319031  0.32973205  0.59602285     0.00100
C1443       C  0.56800039  0.31986896  0.57621376    -0.08500
C1444       C  0.55935399  0.34199555  0.55409012    -0.05900
C1445       C  0.57568618  0.37303114  0.55018900     0.00100
C1446       C  0.59859291  0.38407383  0.57136547    -0.08400
C1447       C  0.61550625  0.41791196  0.56934871     0.62000
H1448       H  0.62544717  0.36997695  0.60959900     0.12700
H1449       H  0.54145274  0.33401831  0.53796860     0.12700
C1450       C  0.55187468  0.28531421  0.57696627     0.62200
F1451       F  0.63601567  0.42420979  0.59263022    -0.23000
F1452       F  0.59199081  0.44288999  0.56868899    -0.20300
F1453       F  0.63436875  0.41895828  0.54480971    -0.20000
F1454       F  0.53364188  0.28207573  0.60172360    -0.20000
F1455       F  0.57605477  0.26090494  0.57598662    -0.20300
F1456       F  0.53058762  0.27977820  0.55400944    -0.23000
C1457       C  0.57333857  0.28808085  0.75048509    -0.05900
C1458       C  0.57096691  0.26070546  0.73123834     0.00100
C1459       C  0.55308294  0.23158721  0.73973094    -0.08500
C1460       C  0.53600756  0.23231823  0.76596902    -0.05900
C1461       C  0.53682308  0.26058492  0.78415253     0.00100
C1462       C  0.55714927  0.28830126  0.77698652    -0.08400
C1463       C  0.56178470  0.31824981  0.79700503     0.62000
H1464       H  0.58796976  0.30981749  0.74463710     0.12700
H1465       H  0.52062968  0.21116568  0.77195276     0.12700
C1466       C  0.55163897  0.19990426  0.72145444     0.62200
F1467       F  0.58986163  0.33672660  0.79022257    -0.23000
F1468       F  0.56546912  0.30762237  0.82489065    -0.20300
F1469       F  0.53456485  0.33900299  0.79508863    -0.20000
F1470       F  0.58334275  0.18756470  0.71787861    -0.20000
F1471       F  0.53768845  0.20680487  0.69511280    -0.20300
F1472       F  0.53270551  0.17493159  0.73388178    -0.23000
C1473       C  0.70727146  0.30705744  0.77451206    -0.05900
C1474       C  0.71922117  0.33990307  0.77190248     0.00100
C1475       C  0.71946870  0.35536245  0.74476898    -0.08500
C1476       C  0.70767471  0.33709562  0.72101769    -0.05900
C1477       C  0.69449737  0.30466591  0.72362052     0.00100
C1478       C  0.69466121  0.28894496  0.75080843    -0.08400
C1479       C  0.68049506  0.25394282  0.75536700     0.62000
H1480       H  0.70730966  0.29597868  0.79553328     0.12700
H1481       H  0.70717525  0.34873721  0.70023163     0.12700
C1482       C  0.72926334  0.39192210  0.74114984     0.62200
F1483       F  0.68259951  0.24437289  0.78365939    -0.23000
F1484       F  0.69796397  0.23092173  0.73921479    -0.20300
F1485       F  0.64733375  0.25289229  0.74757590    -0.20000
F1486       F  0.76246992  0.39659779  0.74778331    -0.20000
F1487       F  0.71003518  0.41151127  0.75890623    -0.20300
F1488       F  0.72429109  0.40277546  0.71347272    -0.23000
C1489       C  0.70290036  0.12852066  0.65507247    -0.05900
C1490       C  0.73232504  0.13157987  0.63940013     0.00100
C1491       C  0.73557395  0.15841655  0.61994817    -0.08500
C1492       C  0.71100014  0.18347137  0.61955939    -0.05900
C1493       C  0.68311130  0.18221548  0.63749109     0.00100
C1494       C  0.67833130  0.15346213  0.65481669    -0.08400
C1495       C  0.64897062  0.15006742  0.67485835     0.62000
H1496       H  0.70043243  0.10752601  0.66938421     0.12700
H1497       H  0.71430451  0.20518107  0.60613978     0.12700
C1498       C  0.76491757  0.16096971  0.59988023     0.62200
F1499       F  0.64970612  0.12043189  0.68997920    -0.23000
F1500       F  0.61964078  0.15032560  0.65933782    -0.20300
F1501       F  0.64938751  0.17627965  0.69446896    -0.20000
F1502       F  0.77090608  0.13002482  0.58735502    -0.20000
F1503       F  0.79286302  0.17167887  0.61480490    -0.20300
F1504       F  0.75897928  0.18350114  0.57819213    -0.23000
C1505       C  0.52178201  0.34648539  0.94909089    -0.05900
C1506       C  0.49919064  0.37179104  0.95643160     0.00100
C1507       C  0.47124164  0.37681618  0.93868171    -0.08500
C1508       C  0.46598412  0.35535149  0.91486228    -0.05900
C1509       C  0.48717643  0.32829534  0.90868865     0.00100
C1510       C  0.51641672  0.32455471  0.92558204    -0.08400
C1511       C  0.54163941  0.29727367  0.91956411     0.62000
H1512       H  0.54258830  0.34245655  0.96338261     0.12700
H1513       H  0.44406530  0.35858419  0.90170930     0.12700
C1514       C  0.44602745  0.40345317  0.94601261     0.62200
F1515       F  0.56965284  0.30070540  0.93670565    -0.23000
F1516       F  0.55177762  0.29882668  0.89142213    -0.20300
F1517       F  0.52770090  0.26612382  0.92475075    -0.20000
F1518       F  0.46170976  0.43435604  0.94808913    -0.20000
F1519       F  0.43131477  0.39606962  0.97182554    -0.20300
F1520       F  0.42129853  0.40545251  0.92542726    -0.23000
C1521       C  0.45764258  0.34748508  0.06984659    -0.05900
C1522       C  0.49073101  0.34862828  0.06004811     0.00100
C1523       C  0.51246852  0.32293185  0.06985343    -0.08500
C1524       C  0.50275446  0.30338728  0.09336474    -0.05900
C1525       C  0.47085798  0.30517027  0.10509209     0.00100
C1526       C  0.44722269  0.32650698  0.09210088    -0.08400
C1527       C  0.41076316  0.32654153  0.10060260     0.62000
H1528       H  0.43938397  0.36300702  0.05958484     0.12700
H1529       H  0.52024897  0.28579842  0.10231436     0.12700
C1530       C  0.54511479  0.31333981  0.05594560     0.62200
F1531       F  0.39170838  0.34617597  0.08273211    -0.23000
F1532       F  0.40728767  0.33918566  0.12802408    -0.20300
F1533       F  0.39813595  0.29419010  0.09910368    -0.20000
F1534       F  0.57124025  0.32700693  0.07157716    -0.20000
F1535       F  0.54720092  0.32332429  0.02788133    -0.20300
F1536       F  0.54835136  0.27879007  0.05570308    -0.23000
C1537       C  0.66021759  0.46571688  0.94412215    -0.05900
C1538       C  0.63312601  0.44433798  0.94973353     0.00100
C1539       C  0.62665388  0.41721587  0.93081019    -0.08500
C1540       C  0.64956363  0.41020847  0.90883023    -0.05900
C1541       C  0.67911037  0.42907713  0.90548658     0.00100
C1542       C  0.68376971  0.45838247  0.92279127    -0.08400
C1543       C  0.71393690  0.48129233  0.91995925     0.62000
H1544       H  0.66471369  0.48642001  0.95886947     0.12700
H1545       H  0.64524697  0.38867391  0.89498382     0.12700
C1546       C  0.59638063  0.39498665  0.93472934     0.62200
F1547       F  0.71260595  0.50867727  0.93834926    -0.23000
F1548       F  0.71566198  0.49331218  0.89239570    -0.20300
F1549       F  0.74252879  0.46388928  0.92642907    -0.20000
F1550       F  0.56818520  0.41451538  0.93495868    -0.20000
F1551       F  0.59882964  0.37816413  0.96029775    -0.20300
F1552       F  0.59301614  0.37148951  0.91286876    -0.23000
C1553       C  0.69507160  0.38520871  0.07591881    -0.05900
C1554       C  0.71299184  0.40972200  0.09128569     0.00100
C1555       C  0.70721511  0.44391086  0.08553202    -0.08500
C1556       C  0.68287457  0.45216054  0.06510785    -0.05900
C1557       C  0.66300985  0.42773975  0.05077409     0.00100
C1558       C  0.67146809  0.39318138  0.05481769    -0.08400
C1559       C  0.65743035  0.36286703  0.03834992     0.62000
H1560       H  0.70018485  0.35903620  0.08005199     0.12700
H1561       H  0.68031999  0.47817443  0.05986140     0.12700
C1562       C  0.72570488  0.47182072  0.10151280     0.62200
F1563       F  0.68335631  0.34278867  0.02947209    -0.23000
F1564       F  0.63941562  0.37033534  0.01420902    -0.20300
F1565       F  0.63747678  0.34439436  0.05635599    -0.20000
F1566       F  0.75906299  0.47094752  0.09476138    -0.20000
F1567       F  0.72189589  0.46789956  0.13064811    -0.20300
F1568       F  0.71395051  0.50323739  0.09458369    -0.23000
C1569       C  0.44249207  0.52606980  0.94154724    -0.05900
C1570       C  0.42766066  0.50649323  0.96264368     0.00100
C1571       C  0.39560250  0.49238700  0.95722822    -0.08500
C1572       C  0.37767389  0.50263486  0.93309673    -0.05900
C1573       C  0.39122638  0.52457879  0.91297700     0.00100
C1574       C  0.42514405  0.53476252  0.91633713    -0.08400
C1575       C  0.44329458  0.55455860  0.89367646     0.62000
H1576       H  0.46716301  0.53609242  0.94569704     0.12700
H1577       H  0.35250042  0.49330855  0.93010713     0.12700
C1578       C  0.37876503  0.46678475  0.97627303     0.62200
F1579       F  0.47692874  0.55738919  0.89964734    -0.23000
F1580       F  0.43049639  0.58653905  0.89208360    -0.20300
F1581       F  0.43992844  0.53842519  0.86748464    -0.20000
F1582       F  0.35177873  0.48133454  0.98950721    -0.20000
F1583       F  0.39969958  0.45408823  0.99689211    -0.20300
F1584       F  0.36759825  0.43998727  0.95970577    -0.23000
C1585       C  0.38272076  0.56454384  0.09601846    -0.05900
C1586       C  0.36273426  0.53959956  0.10817949     0.00100
C1587       C  0.36659193  0.50602174  0.09854368    -0.08500
C1588       C  0.39158211  0.49871753  0.07839193    -0.05900
C1589       C  0.41301555  0.52346169  0.06699013     0.00100
C1590       C  0.40607733  0.55774643  0.07440971    -0.08400
C1591       C  0.42185916  0.58831633  0.06034017     0.62000
H1592       H  0.37924852  0.59023054  0.10306282     0.12700
H1593       H  0.39320563  0.47333514  0.07045633     0.12700
C1594       C  0.34453787  0.47775848  0.10923167     0.62200
F1595       F  0.40115861  0.61580444  0.06220321    -0.23000
F1596       F  0.42758869  0.58308109  0.03161961    -0.20300
F1597       F  0.45120719  0.59673794  0.07416584    -0.20000
F1598       F  0.31189623  0.48367999  0.10157610    -0.20000
F1599       F  0.34719205  0.47567637  0.13862637    -0.20300
F1600       F  0.35321097  0.44693368  0.09775926    -0.23000
C1601       C  0.59625471  0.56292290  0.93913193    -0.05900
C1602       C  0.56729067  0.57373958  0.95269697     0.00100
C1603       C  0.54956518  0.60077759  0.94083362    -0.08500
C1604       C  0.56397571  0.61927224  0.91861173    -0.05900
C1605       C  0.59488755  0.61080849  0.90674978     0.00100
C1606       C  0.61027072  0.58063439  0.91602099    -0.08400
C1607       C  0.64188253  0.56749286  0.90264233     0.62000
H1608       H  0.60941852  0.54210302  0.94846259     0.12700
H1609       H  0.55101490  0.64111659  0.91088736     0.12700
C1610       C  0.51618617  0.61201383  0.95205873     0.62200
F1611       F  0.65149943  0.53740791  0.91444159    -0.23000
F1612       F  0.66751010  0.59035288  0.90686887    -0.20300
F1613       F  0.63682946  0.56199780  0.87370473    -0.20000
F1614       F  0.51995665  0.64242423  0.96620457    -0.20000
F1615       F  0.50225344  0.58900503  0.97045627    -0.20300
F1616       F  0.49433471  0.61602270  0.92944791    -0.23000
C1617       C  0.61716424  0.60508717  0.06608797    -0.05900
C1618       C  0.58436598  0.60572812  0.05515627     0.00100
C1619       C  0.56467126  0.63410126  0.06332811    -0.08500
C1620       C  0.57653650  0.65625610  0.08505363    -0.05900
C1621       C  0.60816399  0.65347427  0.09758994     0.00100
C1622       C  0.62920139  0.62753102  0.08736898    -0.08400
C1623       C  0.66436033  0.62280698  0.09875614     0.62000
H1624       H  0.63432989  0.58728935  0.05736279     0.12700
H1625       H  0.56075478  0.67660478  0.09204632     0.12700
C1626       C  0.53134626  0.64374667  0.05033344     0.62200
F1627       F  0.68075929  0.59704054  0.08487288    -0.23000
F1628       F  0.66328311  0.61493208  0.12744817    -0.20300
F1629       F  0.68283274  0.65181804  0.09500415    -0.20000
F1630       F  0.50679024  0.63931569  0.07047534    -0.20000
F1631       F  0.52265949  0.62612980  0.02594067    -0.20300
F1632       F  0.53232638  0.67726519  0.04298973    -0.23000
C1633       C  0.19060243  0.00524809  0.94043320    -0.05900
C1634       C  0.16545573  0.02857750  0.94717485     0.00100
C1635       C  0.16783087  0.06092533  0.93405940    -0.08500
C1636       C  0.19070077  0.06570176  0.91189693    -0.05900
C1637       C  0.21459671  0.04190158  0.90449020     0.00100
C1638       C  0.21505595  0.01122202  0.91948758    -0.08400
C1639       C  0.24091550  0.98464783  0.91345290     0.62000
H1640       H  0.19173820  0.98224480  0.95231677     0.12700
H1641       H  0.19071588  0.08939818  0.90078682     0.12700
C1642       C  0.14846032  0.09207308  0.94265935     0.62200
F1643       F  0.23616107  0.95629564  0.92977479    -0.23000
F1644       F  0.27223041  0.99735017  0.91971674    -0.20300
F1645       F  0.23925385  0.97497501  0.88499936    -0.20000
F1646       F  0.16768935  0.12072128  0.93925969    -0.20000
F1647       F  0.13956366  0.09181528  0.97087336    -0.20300
F1648       F  0.12052651  0.09494211  0.92555306    -0.23000
C1649       C  0.17541226  0.07202118  0.08081453    -0.05900
C1650       C  0.18345463  0.04681890  0.10011446     0.00100
C1651       C  0.16795066  0.01493586  0.09679453    -0.08500
C1652       C  0.14936918  0.00795800  0.07163577    -0.05900
C1653       C  0.14237070  0.03274115  0.05148947     0.00100
C1654       C  0.15413006  0.06599483  0.05736891    -0.08400
C1655       C  0.14604450  0.09582696  0.03901122     0.62000
H1656       H  0.18608443  0.09688055  0.08397145     0.12700
H1657       H  0.14172409  0.98249531  0.06702701     0.12700
C1658       C  0.17016282  0.98817273  0.11945862     0.62200
F1659       F  0.13789981  0.12294486  0.05620231    -0.23000
F1660       F  0.11937981  0.08932768  0.02115940    -0.20300
F1661       F  0.17348817  0.10438614  0.02295785    -0.20000
F1662       F  0.17436614  0.00200845  0.14647175    -0.20000
F1663       F  0.19637850  0.96714618  0.11351457    -0.20300
F1664       F  0.14101935  0.96958408  0.12000065    -0.23000
C1665       C  0.06684237  0.83906031  0.93129994    -0.05900
C1666       C  0.09033828  0.85655156  0.94865817     0.00100
C1667       C  0.12458394  0.84712059  0.94569049    -0.08500
C1668       C  0.13352197  0.82496035  0.92339113    -0.05900
C1669       C  0.11002306  0.80828510  0.90617872     0.00100
C1670       C  0.07596411  0.81520969  0.91029131    -0.08400
C1671       C  0.04918868  0.79800918  0.89221370     0.62000
H1672       H  0.04076990  0.84271028  0.93484514     0.12700
H1673       H  0.15955595  0.81935542  0.92011966     0.12700
C1674       C  0.15348128  0.85878547  0.96473488     0.62200
F1675       F  0.01803023  0.81113065  0.89727820    -0.23000
F1676       F  0.04804415  0.76422396  0.89845354    -0.20300
F1677       F  0.05600468  0.80199795  0.86350996    -0.20000
F1678       F  0.14415050  0.87152439  0.99085251    -0.20000
F1679       F  0.17180657  0.88283845  0.95057742    -0.20300
F1680       F  0.17397008  0.83192597  0.97042813    -0.23000
C1681       C  0.05050284  0.84886505  0.05769426    -0.05900
C1682       C  0.07084865  0.87679596  0.05171903     0.00100
C1683       C  0.09807579  0.88380799  0.06991475    -0.08500
C1684       C  0.10559822  0.86165751  0.09221495    -0.05900
C1685       C  0.08725800  0.83196228  0.09668603     0.00100
C1686       C  0.05806396  0.82624110  0.07988650    -0.08400
C1687       C  0.03564464  0.79593642  0.08425890     0.62000
H1688       H  0.02992714  0.84355303  0.04327591     0.12700
H1689       H  0.12703754  0.86683331  0.10567117     0.12700
C1690       C  0.11976018  0.91413970  0.06494530     0.62200
F1691       F  0.00912910  0.79521488  0.06524781    -0.23000
F1692       F  0.02286566  0.79676561  0.11160735    -0.20300
F1693       F  0.05344610  0.76679191  0.08023685    -0.20000
F1694       F  0.09994616  0.94221281  0.06565966    -0.20000
F1695       F  0.13506286  0.91161075  0.03869782    -0.20300
F1696       F  0.14431602  0.91759769  0.08556246    -0.23000
C1697       C  0.90628737  0.91618808  0.89316951    -0.05900
C1698       C  0.87202773  0.91622895  0.89847949     0.00100
C1699       C  0.86080878  0.92874441  0.92511983    -0.08500
C1700       C  0.88448056  0.93853404  0.94602533    -0.05900
C1701       C  0.91911984  0.93620764  0.94166282     0.00100
C1702       C  0.92989515  0.92816371  0.91328942    -0.08400
C1703       C  0.96522436  0.93215932  0.90214040     0.62000
H1704       H  0.91475978  0.90784440  0.87234936     0.12700
H1705       H  0.87560518  0.94899935  0.96584598     0.12700
C1706       C  0.82406504  0.93120656  0.93191508     0.62200
F1707       F  0.98008104  0.90107336  0.90054008    -0.23000
F1708       F  0.98480017  0.95357823  0.91847073    -0.20300
F1709       F  0.96436865  0.94548973  0.87495358    -0.20000
F1710       F  0.80889126  0.90019520  0.92815705    -0.20000
F1711       F  0.80935338  0.95426527  0.91409558    -0.20300
F1712       F  0.81868279  0.94150702  0.95983212    -0.23000
C1713       C  0.90907212  0.96900442  0.05502839    -0.05900
C1714       C  0.93630042  0.94841987  0.04871285     0.00100
C1715       C  0.94388049  0.92199254  0.06744201    -0.08500
C1716       C  0.92263220  0.91565727  0.09077491    -0.05900
C1717       C  0.89372117  0.93458619  0.09592833     0.00100
C1718       C  0.88759081  0.96271323  0.07820531    -0.08400
C1719       C  0.85796390  0.98543060  0.08272657     0.62000
H1720       H  0.90352452  0.98897553  0.04029324     0.12700
H1721       H  0.92796809  0.89483454  0.10464938     0.12700
C1722       C  0.97355721  0.89975102  0.06200047     0.62200
F1723       F  0.85717437  0.01129612  0.06325918    -0.23000
F1724       F  0.85948691  0.99966278  0.10979386    -0.20300
F1725       F  0.82881181  0.96711679  0.07952938    -0.20000
F1726       F  0.00209021  0.91922289  0.06136392    -0.20000
F1727       F  0.96968731  0.88308068  0.03611073    -0.20300
F1728       F  0.97745979  0.87606686  0.08312287    -0.23000
C1729       C  0.98842905  0.09408831  0.91891120    -0.05900
C1730       C  0.99857584  0.10683826  0.94589045     0.00100
C1731       C  0.00300349  0.14235994  0.94838307    -0.08500
C1732       C  0.98921234  0.16304665  0.92724600    -0.05900
C1733       C  0.97591044  0.15002666  0.90163637     0.00100
C1734       C  0.97746580  0.11484803  0.89663256    -0.08400
C1735       C  0.96885554  0.09898264  0.86775202     0.46000
H1736       H  0.98946595  0.06736698  0.91507377     0.12700
H1737       H  0.99029075  0.19002393  0.93028956     0.12700
C1738       C  0.02429810  0.16007257  0.97093958     0.62200
F1739       F  0.97719611  0.06538272  0.86648314    -0.23000
F1740       F  0.98616251  0.11513442  0.84640109    -0.20300
F1741       F  0.93511749  0.10122792  0.86255381    -0.20000
F1742       F  0.04317886  0.18495295  0.95828494    -0.20000
F1743       F  0.04637880  0.13888610  0.98407041    -0.20300
F1744       F  0.00416617  0.17487928  0.99118846    -0.23000
C1745       C  0.96569515  0.07827110  0.05853981    -0.05900
C1746       C  0.99933144  0.07937610  0.05116941     0.00100
C1747       C  0.02196176  0.09681961  0.06919811    -0.08500
C1748       C  0.00983493  0.11523091  0.09269368    -0.05900
C1749       C  0.97570321  0.11682674  0.09869330     0.00100
C1750       C  0.95327500  0.09657816  0.08206761    -0.08400
C1751       C  0.91622221  0.09520910  0.08792640     0.62000
H1752       H  0.94881492  0.06480878  0.04429765     0.12700
H1753       H  0.02700210  0.12977497  0.10584837     0.12700
C1754       C  0.05856907  0.09746830  0.06250993     0.62200
F1755       F  0.89953315  0.07390807  0.06907901    -0.23000
F1756       F  0.90280054  0.12682368  0.08515184    -0.20300
F1757       F  0.91079971  0.08349862  0.11522104    -0.20000
F1758       F  0.06352737  0.11499689  0.03760617    -0.20000
F1759       F  0.06973624  0.06499314  0.05911210    -0.20300
F1760       F  0.07703961  0.11276800  0.08411992    -0.23000
C1761       C  0.05338828  0.11115251  0.45803461    -0.05900
C1762       C  0.07307106  0.08261816  0.46218850     0.00100
C1763       C  0.09672154  0.07394804  0.44138456    -0.08500
C1764       C  0.10146499  0.09535919  0.41801994    -0.05900
C1765       C  0.08412793  0.12569784  0.41518685     0.00100
C1766       C  0.05866902  0.13322253  0.43511724    -0.08400
C1767       C  0.03805544  0.16486691  0.43325834     0.62000
H1768       H  0.03538708  0.11732329  0.47432130     0.12700
H1769       H  0.12013252  0.08915986  0.40235274     0.12700
C1770       C  0.11825355  0.04330299  0.44467341     0.62200
F1771       F  0.01515902  0.16711969  0.45512225    -0.23000
F1772       F  0.02072528  0.16501212  0.40764508    -0.20300
F1773       F  0.05853195  0.19285340  0.43516750    -0.20000
F1774       F  0.09845874  0.01489822  0.44562296    -0.20000
F1775       F  0.13689957  0.04600615  0.46953366    -0.20300
F1776       F  0.13978239  0.03960780  0.42200665    -0.23000
C1777       C  0.13164335  0.13141947  0.59687541    -0.05900
C1778       C  0.10629080  0.14991783  0.60975557     0.00100
C1779       C  0.07340617  0.14606099  0.59940094    -0.08500
C1780       C  0.06692565  0.12188227  0.57784011    -0.05900
C1781       C  0.09206662  0.10161798  0.56581323     0.00100
C1782       C  0.12570229  0.10964165  0.57352179    -0.08400
C1783       C  0.15659692  0.09815801  0.55765957     0.62000
H1784       H  0.15700950  0.13562988  0.60410315     0.12700
H1785       H  0.04191587  0.11969413  0.56957465     0.12700
C1786       C  0.04513962  0.16699468  0.61113079     0.62200
F1787       F  0.17870062  0.12480011  0.55534489    -0.23000
F1788       F  0.15024303  0.08701773  0.53016825    -0.20300
F1789       F  0.17191562  0.07308451  0.57291584    -0.20000
F1790       F  0.05034628  0.20032699  0.60450036    -0.20000
F1791       F  0.04345851  0.16365287  0.64047481    -0.20300
F1792       F  0.01470060  0.15729871  0.59969017    -0.23000
C1793       C  0.90864940  0.00524534  0.42215886    -0.05900
C1794       C  0.91296042  0.03859173  0.41321661     0.00100
C1795       C  0.93959280  0.05793178  0.42541675    -0.08500
C1796       C  0.95713790  0.04490188  0.44898391    -0.05900
C1797       C  0.94991085  0.01306829  0.45971278     0.00100
C1798       C  0.92714121  0.99203907  0.44493368    -0.08400
C1799       C  0.92243554  0.95585493  0.45365865     0.62000
H1800       H  0.88984792  0.98972156  0.41178573     0.12700
H1801       H  0.97501257  0.06042100  0.46057061     0.12700
C1802       C  0.94910910  0.09241843  0.41458243     0.62200
F1803       F  0.90167062  0.93844691  0.43492770    -0.23000
F1804       F  0.90889822  0.95426971  0.48067836    -0.20300
F1805       F  0.95298390  0.94030795  0.45375679    -0.20000
F1806       F  0.92340180  0.11454588  0.41915684    -0.20000
F1807       F  0.95614285  0.09049005  0.38572280    -0.20300
F1808       F  0.97709435  0.10515352  0.42836864    -0.23000
C1809       C  0.88734966  0.02015343  0.55812658    -0.05900
C1810       C  0.92155189  0.01840318  0.56511277     0.00100
C1811       C  0.93071621  0.02454140  0.59439856    -0.08500
C1812       C  0.90683502  0.03773291  0.61325698    -0.05900
C1813       C  0.87334137  0.04111444  0.60554239     0.00100
C1814       C  0.86319729  0.03135005  0.57765478    -0.08400
C1815       C  0.82712326  0.03353557  0.56815296     0.62000
H1816       H  0.87894243  0.01168647  0.53736240     0.12700
H1817       H  0.91424185  0.04402319  0.63501043     0.12700
C1818       C  0.96448475  0.01743293  0.60792914     0.62200
F1819       F  0.82311144  0.02632178  0.53933919    -0.23000
F1820       F  0.81554302  0.06563749  0.57305933    -0.20300
F1821       F  0.80806224  0.01080309  0.58313726    -0.20000
F1822       F  0.98060498  0.04745596  0.61403252    -0.20000
F1823       F  0.98492232  0.99780252  0.59138917    -0.20300
F1824       F  0.95986944  0.00044837  0.63325416    -0.23000
C1825       C  0.95655907  0.84149982  0.43239458    -0.05900
C1826       C  0.98043565  0.83469402  0.41154271     0.00100
C1827       C  0.01228890  0.85011439  0.41427504    -0.08500
C1828       C  0.01947764  0.87027568  0.43868406    -0.05900
C1829       C  0.99661126  0.87437721  0.46088159     0.00100
C1830       C  0.96383881  0.86116110  0.45683849    -0.08400
C1831       C  0.93590982  0.86582567  0.47815090     0.62000
H1832       H  0.93197066  0.83045716  0.42997807     0.12700
H1833       H  0.04385232  0.88113503  0.44142939     0.12700
C1834       C  0.03885923  0.84486997  0.39187154     0.62200
F1835       F  0.90686913  0.87368461  0.46384997    -0.23000
F1836       F  0.94231549  0.89138079  0.49759749    -0.20300
F1837       F  0.93088505  0.83626103  0.49272625    -0.20000
F1838       F  0.02648201  0.85267469  0.36514452    -0.20000
F1839       F  0.04884498  0.81179922  0.39192767    -0.20300
F1840       F  0.06657808  0.86487689  0.39705842    -0.23000
C1841       C  0.99698205  0.86295617  0.59247958    -0.05900
C1842       C  0.00881146  0.85075349  0.56608803     0.00100
C1843       C  0.01571428  0.81563232  0.56422936    -0.08500
C1844       C  0.00297469  0.79415697  0.58544024    -0.05900
C1845       C  0.98702276  0.80645859  0.60994661     0.00100
C1846       C  0.98573437  0.84174535  0.61426413    -0.08400
C1847       C  0.97344290  0.85745505  0.64198644     0.62000
H1848       H  0.99691476  0.88962748  0.59642016     0.12700
H1849       H  0.00616238  0.76730741  0.58303261     0.12700
C1850       C  0.03738329  0.79897390  0.54171470     0.62200
F1851       F  0.97915461  0.89174542  0.64313070    -0.23000
F1852       F  0.98982333  0.84346367  0.66496382    -0.20300
F1853       F  0.93961121  0.85225013  0.64454083    -0.20000
F1854       F  0.05494641  0.82121984  0.52515330    -0.20000
F1855       F  0.01784871  0.77880441  0.52409010    -0.20300
F1856       F  0.06059190  0.77908651  0.55517570    -0.23000
C1857       C  0.16434125  0.96349654  0.44070805    -0.05900
C1858       C  0.14461236  0.93874423  0.45350694     0.00100
C1859       C  0.14507146  0.90576038  0.44194741    -0.08500
C1860       C  0.16601885  0.89846967  0.41872231    -0.05900
C1861       C  0.18766657  0.92261590  0.40713876     0.00100
C1862       C  0.18599318  0.95618670  0.41780865    -0.08400
C1863       C  0.20767844  0.98412596  0.40608332     0.62000
H1864       H  0.16504820  0.98806654  0.45071869     0.12700
H1865       H  0.16711868  0.87293190  0.41071534     0.12700
C1866       C  0.12669719  0.87728448  0.45629963     0.62200
F1867       F  0.20106838  0.01479485  0.41880519    -0.23000
F1868       F  0.20208954  0.98712732  0.37703204    -0.20300
F1869       F  0.24077223  0.97724892  0.41115895    -0.20000
F1870       F  0.09532098  0.88742386  0.46378137    -0.20000
F1871       F  0.14364685  0.86796910  0.48068426    -0.20300
F1872       F  0.12350967  0.84951451  0.43843645    -0.23000
C1873       C  0.20628772  0.92773922  0.55237727    -0.05900
C1874       C  0.17246888  0.93353823  0.55903661     0.00100
C1875       C  0.16325607  0.93129886  0.58854343    -0.08500
C1876       C  0.18643488  0.91894667  0.60834042    -0.05900
C1877       C  0.21916832  0.91128306  0.60106301     0.00100
C1878       C  0.22966595  0.91651809  0.57269545    -0.08400
C1879       C  0.26506454  0.90926628  0.56355717     0.62000
H1880       H  0.21523321  0.93273211  0.53127320     0.12700
H1881       H  0.17891420  0.91604981  0.63040917     0.12700
C1882       C  0.13012132  0.94128151  0.60174723     0.62200
F1883       F  0.26947924  0.91354238  0.53450766    -0.23000
F1884       F  0.27283890  0.87644906  0.56990013    -0.20300
F1885       F  0.28689156  0.93074494  0.57771100    -0.20000
F1886       F  0.11486016  0.91302215  0.61265269    -0.20000
F1887       F  0.10801632  0.95643434  0.58360451    -0.20300
F1888       F  0.13618130  0.96370293  0.62400565    -0.23000
loop_ 
_geom_bond_atom_site_label_1 
_geom_bond_atom_site_label_2 
_geom_bond_distance 
_geom_bond_site_symmetry_2 
_ccdc_geom_bond_type 
C1            C2   1.523       .  S
C1            C7   1.526       .  S
C1            C5   1.531       .  S
C1         C1874   1.554       .  S
C2            H9   1.081       .  S
C2            C3   1.374       .  D
C3            C4   1.568       .  S
C3           C42   1.524   1_565  S
C4            C8   1.571       .  S
C4            C6   1.560       .  S
C4           H10   1.107       .  S
C5           H11   1.080       .  S
C5            C6   1.379       .  D
C6           C15   1.529       .  S
C7           H12   1.082       .  S
C7            C8   1.360       .  D
C8         C1858   1.493       .  S
C13          C14   1.518       .  S
C13          C19   1.522       .  S
C13          C17   1.543   1_455  S
C13        C1842   1.552       .  S
C14          H21   1.080       .  S
C14          C15   1.375       .  D
C15          C16   1.571       .  S
C16          C20   1.570       .  S
C16          C18   1.555   1_455  S
C16          H22   1.107       .  S
C17          H23   1.077       .  S
C17          C18   1.374       .  D
C18          C27   1.513       .  S
C19          H24   1.085   1_455  S
C19          C20   1.363       .  D
C20        C1829   1.504   1_455  S
C25          C26   1.531   1_545  S
C25          C31   1.534       .  S
C25          C29   1.532       .  S
C25        C1810   1.554       .  S
C26          H33   1.081       .  S
C26          C27   1.377       .  D
C27          C28   1.549       .  S
C28          C32   1.548   1_565  S
C28          C30   1.549   1_665  S
C28          H34   1.104   1_655  S
C29          H35   1.081       .  S
C29          C30   1.375   1_655  D
C30          C39   1.504       .  S
C31          H36   1.084       .  S
C31          C32   1.362       .  D
C32        C1797   1.481       .  S
C37          C38   1.537       .  S
C37          C43   1.515       .  S
C37          C41   1.531       .  S
C37        C1781   1.547       .  S
C38          H45   1.080       .  S
C38          C39   1.374       .  D
C39          C40   1.553       .  S
C40          C44   1.555       .  S
C40          C42   1.561       .  S
C40          H46   1.103       .  S
C41          H47   1.078       .  S
C41          C42   1.381       .  D
C43          H48   1.088       .  S
C43          C44   1.358       .  D
C44        C1762   1.489       .  S
C49          C50   1.524       .  S
C49          C55   1.524   1_456  S
C49          C53   1.540   1_455  S
C49        C1730   1.552   1_455  S
C50          H57   1.082       .  S
C50          C51   1.376       .  D
C51          C52   1.553   1_556  S
C51          C90   1.514       .  S
C52          C56   1.558       .  S
C52          C54   1.551   1_454  S
C52          H58   1.105       .  S
C53          H59   1.078       .  S
C53          C54   1.376       .  D
C54          C63   1.509   1_545  S
C55          H60   1.084       .  S
C55          C56   1.363   1_655  D
C56        C1746   1.487   1_455  S
C61          C62   1.525       .  S
C61          C67   1.532       .  S
C61          C65   1.531       .  S
C61        C1701   1.552       .  S
C62          H69   1.081       .  S
C62          C63   1.373       .  D
C63          C64   1.553   1_556  S
C64          C68   1.565       .  S
C64          C66   1.561   1_554  S
C64          H70   1.105   1_655  S
C65          H71   1.074       .  S
C65          C66   1.377       .  D
C66          C75   1.522   1_655  S
C67          H72   1.085   1_556  S
C67          C68   1.363   1_556  D
C68        C1714   1.499       .  S
C73          C74   1.542       .  S
C73          C79   1.512   1_556  S
C73          C77   1.525       .  S
C73        C1666   1.558       .  S
C74          H81   1.072       .  S
C74          C75   1.382       .  D
C75          C76   1.561   1_556  S
C76          C80   1.569       .  S
C76          C78   1.576   1_554  S
C76          H82   1.107       .  S
C77          H83   1.081       .  S
C77          C78   1.379       .  D
C78          C87   1.541       .  S
C79          H84   1.088       .  S
C79          C80   1.357       .  D
C80        C1682   1.496       .  S
C85          C86   1.534   1_545  S
C85          C91   1.514       .  S
C85          C89   1.527       .  S
C85        C1634   1.557       .  S
C86          H93   1.080       .  S
C86          C87   1.385       .  D
C87          C88   1.574   1_566  S
C88          C92   1.575       .  S
C88          C90   1.560   1_554  S
C88          H94   1.108   1_545  S
C89          H95   1.075       .  S
C89          C90   1.373       .  D
C91          H96   1.087   1_556  S
C91          C92   1.359   1_556  D
C92        C1653   1.506       .  S
C97          C98   1.532       .  S
C97         C103   1.519       .  S
C97         C101   1.548       .  S
C97        C1618   1.565       .  S
C98         H105   1.079       .  S
C98          C99   1.381       .  D
C99         C100   1.558   1_554  S
C99         C114   1.517       .  S
C100        C104   1.556       .  S
C100        C102   1.553   1_556  S
C100        H106   1.105       .  S
C101        H107   1.074       .  S
C101        C102   1.379       .  D
C102        C123   1.522       .  S
C103        H108   1.087   1_554  S
C103        C104   1.360   1_554  D
C104       C1602   1.489       .  S
C109        C110   1.546       .  S
C109        C115   1.515       .  S
C109        C113   1.525       .  S
C109       C1589   1.558       .  S
C110        H117   1.076       .  S
C110        C111   1.386       .  D
C111        C112   1.550       .  S
C111        C138   1.520       .  S
C112        C116   1.556   1_554  S
C112        C114   1.564       .  S
C112        H118   1.106   1_554  S
C113        H119   1.073       .  S
C113        C114   1.376       .  D
C115        H120   1.087       .  S
C115        C116   1.357   1_554  D
C116       C1570   1.492       .  S
C121        C122   1.546       .  S
C121        C127   1.509   1_554  S
C121        C125   1.524       .  S
C121       C1557   1.548       .  S
C122        H129   1.074       .  S
C122        C123   1.380       .  D
C123        C124   1.558   1_554  S
C124        C128   1.564       .  S
C124        C126   1.569   1_556  S
C124        H130   1.105       .  S
C125        H131   1.079       .  S
C125        C126   1.374       .  D
C126        C135   1.519       .  S
C127        H132   1.088       .  S
C127        C128   1.356       .  D
C128       C1538   1.494       .  S
C133        C134   1.535       .  S
C133        C139   1.514       .  S
C133        C137   1.534       .  S
C133       C1522   1.551       .  S
C134        H141   1.076       .  S
C134        C135   1.382       .  D
C135        C136   1.554   1_554  S
C136        C140   1.563       .  S
C136        C138   1.567   1_556  S
C136        H142   1.106       .  S
C137        H143   1.076       .  S
C137        C138   1.372       .  D
C139        H144   1.088       .  S
C139        C140   1.358   1_554  D
C140       C1506   1.493       .  S
In145       O147   2.238       .  S
In145       O148   2.266       .  S
In145       O156   2.277       .  S
In145       O150   2.269       .  S
In145       O152   2.236       .  S
In145       O153   2.256       .  S
In145       O154   2.233       .  S
In145       O157   2.264       .  S
C146        O152   1.264       .  A
C146        O154   1.256       .  A
C146       C1477   1.479       .  S
O147        C155   1.258       .  A
O148        C155   1.262       .  A
C149        O156   1.262       .  A
C149        O150   1.260       .  A
C149       C1442   1.503       .  S
C151        O153   1.261       .  A
C151        O157   1.262       .  A
C151       C1493   1.496       .  S
C155       C1458   1.497       .  S
In158       O160   2.251       .  S
In158       O161   2.260       .  S
In158       O169   2.251       .  S
In158       O163   2.258       .  S
In158       O165   2.226       .  S
In158       O166   2.262       .  S
In158       O167   2.242       .  S
In158       O170   2.258       .  S
C159        O165   1.259       .  A
C159        O167   1.260       .  A
C159       C1426   1.475       .  S
O160        C168   1.259       .  A
O161        C168   1.262       .  A
C162        O169   1.263       .  A
C162        O163   1.262       .  A
C162       C1813   1.493       .  S
C164        O166   1.257       .  A
C164        O170   1.258       .  A
C164       C1410   1.496   1_545  S
C168       C1490   1.492       .  S
In171       O173   2.260       .  S
In171       O174   2.263       .  S
In171       O182   2.273       .  S
In171       O176   2.243       .  S
In171       O178   2.230       .  S
In171       O179   2.274       .  S
In171       O180   2.239       .  S
In171       O183   2.245       .  S
C172        O178   1.260       .  A
C172        O180   1.259       .  A
C172       C1429   1.474       .  S
O173        C181   1.258       .  A
O174        C181   1.263       .  A
C175        O182   1.265       .  A
C175        O176   1.256       .  A
C175       C1733   1.494       .  S
C177        O179   1.264       .  A
C177        O183   1.255       .  A
C177       C1378   1.500   1_655  S
C181       C1394   1.498       .  S
In184       O186   2.238       .  S
In184       O187   2.261       .  S
In184       O195   2.263       .  S
In184       O189   2.261       .  S
In184       O191   2.256       .  S
In184       O192   2.259       .  S
In184       O193   2.224       .  S
In184       O196   2.270       .  S
C185        O191   1.264       .  A
C185        O193   1.255       .  A
C185       C1474   1.472       .  S
O186        C194   1.261       .  A
O187        C194   1.262       .  A
C188        O195   1.262       .  A
C188        O189   1.261       .  A
C188       C1541   1.505       .  S
C190        O192   1.261       .  A
C190        O196   1.261       .  A
C190       C1397   1.495       .  S
C194       C1365   1.494       .  S
In197       O199   2.232       .  S
In197       O200   2.260       .  S
In197       O208   2.270       .  S
In197       O202   2.271       .  S
In197       O204   2.252       .  S
In197       O205   2.259       .  S
In197       O206   2.222       .  S
In197       O209   2.268       .  S
C198        O204   1.266       .  A
C198        O206   1.258       .  A
C198       C1330   1.481       .  S
O199        C207   1.260       .  A
O200        C207   1.264       .  A
C201        O208   1.264       .  A
C201        O202   1.260       .  A
C201       C1605   1.507       .  S
C203        O205   1.261       .  A
C203        O209   1.262       .  A
C203       C1346   1.502       .  S
C207       C1314   1.491       .  S
In210       O212   2.262       .  S
In210       O213   2.267       .  S
In210       O221   2.272       .  S
In210       O215   2.254       .  S
In210       O217   2.236       .  S
In210       O218   2.285       .  S
In210       O219   2.251       .  S
In210       O222   2.233       .  S
C211        O217   1.261       .  A
C211        O219   1.262       .  A
C211       C1298   1.482       .  S
O212        C220   1.257       .  A
O213        C220   1.261       .  A
C214        O221   1.261       .  A
C214        O215   1.257       .  A
C214       C1698   1.495       .  S
C216        O218   1.263       .  A
C216        O222   1.257       .  A
C216       C1413   1.492       .  S
C220       C1349   1.500       .  S
In223       O225   2.250       .  S
In223       O226   2.271       .  S
In223       O234   2.295       .  S
In223       O228   2.237       .  S
In223       O230   2.255       .  S
In223       O231   2.278       .  S
In223       O232   2.245       .  S
In223       O235   2.234       .  S
C224        O230   1.259       .  A
C224        O232   1.260       .  A
C224       C1301   1.487       .  S
O225        C233   1.260       .  A
O226        C233   1.258       .  A
C227        O234   1.265       .  A
C227        O228   1.255       .  A
C227       C1845   1.497       .  S
C229        O231   1.265       .  A
C229        O235   1.256       .  A
C229       C1266   1.499   1_655  S
C233       C1282   1.497       .  S
In236       O238   2.235       .  S
In236       O239   2.254       .  S
In236       O247   2.269       .  S
In236       O241   2.255       .  S
In236       O243   2.248       .  S
In236       O244   2.266       .  S
In236       O245   2.226       .  S
In236       O248   2.229       .  S
C237        O243   1.263       .  A
C237        O245   1.258       .  A
C237       C1333   1.476       .  S
O238        C246   1.258       .  A
O239        C246   1.265       .  A
C240        O247   1.263       .  A
C240        O241   1.261       .  A
C240       C1250   1.503       .  S
C242        O244   1.264       .  A
C242        O248   1.260       .  A
C242       C1285   1.487       .  S
C246       C1362   1.497       .  S
In249       O251   2.227       .  S
In249       O252   2.257       .  S
In249       O260   2.261       .  S
In249       O254   2.253       .  S
In249       O256   2.255       .  S
In249       O257   2.245       .  S
In249       O258   2.226       .  S
In249       O261   2.253       .  S
C250        O256   1.264       .  A
C250        O258   1.255       .  A
C250       C1218   1.473       .  S
O251        C259   1.260       .  A
O252        C259   1.264       .  A
C253        O260   1.263       .  A
C253        O254   1.262       .  A
C253       C1509   1.501       .  S
C255        O257   1.262       .  A
C255        O261   1.260       .  A
C255       C1237   1.482       .  S
C259       C1461   1.484       .  S
In262       O264   2.239       .  S
In262       O265   2.250       .  S
In262       O273   2.274       .  S
In262       O267   2.231       .  S
In262       O269   2.226       .  S
In262       O270   2.236       .  S
In262       O271   2.233       .  S
In262       O274   2.263       .  S
C263        O269   1.258       .  A
C263        O271   1.260       .  A
C263       C1202   1.485       .  S
O264        C272   1.258       .  A
O265        C272   1.261       .  A
C266        O273   1.263       .  A
C266        O267   1.259       .  A
C266       C1637   1.498       .  S
C268        O270   1.255       .  A
C268        O274   1.264       .  A
C268       C1189   1.487   1_545  S
C272       C1234   1.480       .  S
In275       O277   2.233       .  S
In275       O278   2.261       .  S
In275       O286   2.268       .  S
In275       O280   2.255       .  S
In275       O282   2.237       .  S
In275       O283   2.255       .  S
In275       O284   2.226       .  S
In275       O287   2.246       .  S
C276        O282   1.265       .  A
C276        O284   1.256       .  A
C276       C1221   1.483       .  S
O277        C285   1.256       .  A
O278        C285   1.264       .  A
C279        O286   1.262       .  A
C279        O280   1.260       .  A
C279       C1141   1.503       .  S
C281        O283   1.263       .  A
C281        O287   1.259       .  A
C281       C1170   1.494       .  S
C285       C1154   1.492       .  S
In288       O290   2.233       .  S
In288       O291   2.267       .  S
In288       O299   2.258       .  S
In288       O293   2.233       .  S
In288       O295   2.232       .  S
In288       O296   2.264       .  S
In288       O297   2.225       .  S
In288       O300   2.246       .  S
C289        O295   1.262       .  A
C289        O297   1.257       .  A
C289       C1205   1.483       .  S
O290        C298   1.258       .  A
O291        C298   1.262       .  A
C292        O299   1.263       .  A
C292        O293   1.259       .  A
C292       C1778   1.485       .  S
C294        O296   1.263       .  A
C294        O300   1.257       .  A
C294       C1381   1.488       .  S
C298       C1173   1.492       .  S
In301       O303   2.231       .  S
In301       O304   2.263       .  S
In301       O312   2.267       .  S
In301       O306   2.252       .  S
In301       O308   2.231       .  S
In301       O309   2.263       .  S
In301       O310   2.225       .  S
In301       O313   2.247       .  S
C302        O308   1.265       .  A
C302        O310   1.257       .  A
C302       C1106   1.478       .  S
O303        C311   1.260       .  A
O304        C311   1.264       .  A
C305        O312   1.265       .  A
C305        O306   1.258       .  A
C305       C1573   1.500       .  S
C307        O309   1.263       .  A
C307        O313   1.261       .  A
C307       C1122   1.495       .  S
C311       C1157   1.495       .  S
In314       O316   2.254       .  S
In314       O317   2.273       .  S
In314       O325   2.266       .  S
In314       O319   2.259       .  S
In314       O321   2.237       .  S
In314       O322   2.253       .  S
In314       O323   2.242       .  S
In314       O326   2.256       .  S
C315        O321   1.260       .  A
C315        O323   1.257       .  A
C315       C1090   1.487       .  S
O316        C324   1.258       .  A
O317        C324   1.262       .  A
C318        O325   1.263       .  A
C318        O319   1.261       .  A
C318       C1669   1.493       .  S
C320        O322   1.258       .  A
C320        O326   1.262       .  A
C320       C1269   1.486       .  S
C324       C1125   1.501       .  S
In327       O329   2.233       .  S
In327       O330   2.259       .  S
In327       O338   2.271       .  S
In327       O332   2.242       .  S
In327       O334   2.246       .  S
In327       O335   2.246       .  S
In327       O336   2.230       .  S
In327       O339   2.260       .  S
C328        O334   1.259       .  A
C328        O336   1.259       .  A
C328       C1093   1.481       .  S
O329        C337   1.261       .  A
O330        C337   1.264       .  A
C331        O338   1.262       .  A
C331        O332   1.259       .  A
C331       C1877   1.490       .  S
C333        O335   1.256       .  A
C333        O339   1.261       .  A
C333       C1186   1.489       .  S
C337       C1077   1.494       .  S
In340       O342   2.232       .  S
In340       O343   2.255       .  S
In340       O351   2.262       .  S
In340       O345   2.255       .  S
In340       O347   2.237       .  S
In340       O348   2.265       .  S
In340       O349   2.223       .  S
In340       O352   2.227       .  S
C341        O347   1.264       .  A
C341        O349   1.256       .  A
C341       C1109   1.474       .  S
O342        C350   1.259       .  A
O343        C350   1.264       .  A
C344        O351   1.265       .  A
C344        O345   1.259       .  A
C344       C1058   1.495       .  S
C346        O348   1.264       .  A
C346        O352   1.256       .  A
C346       C1074   1.494       .  S
C350       C1317   1.481       .  S
C353        C354   1.535       .  S
C353        C359   1.518       .  S
C353        C357   1.528       .  S
C353       C1042   1.565       .  S
C354        H361   1.077       .  S
C354        C355   1.388       .  D
C355        C356   1.564       .  S
C355        C382   1.531       .  S
C356        C360   1.566       .  S
C356        C358   1.562       .  S
C356        H362   1.108       .  S
C357        H363   1.073       .  S
C357        C358   1.376       .  D
C358        C367   1.521       .  S
C359        H364   1.087       .  S
C359        C360   1.358       .  D
C360       C1253   1.497       .  S
C365        C366   1.529       .  S
C365        C371   1.517       .  S
C365        C369   1.545       .  S
C365       C1026   1.560       .  S
C366        H373   1.080       .  S
C366        C367   1.379       .  D
C367        C368   1.562       .  S
C368        C372   1.562       .  S
C368        C370   1.553       .  S
C368        H374   1.106       .  S
C369        H375   1.075       .  S
C369        C370   1.377       .  D
C370        C391   1.517       .  S
C371        H376   1.087       .  S
C371        C372   1.360       .  D
C372       C1061   1.492       .  S
C377        C378   1.527       .  S
C377        C383   1.525       .  S
C377        C381   1.521       .  S
C377       C1010   1.547       .  S
C378        H385   1.081       .  S
C378        C379   1.372       .  D
C379        C380   1.561       .  S
C379        C394   1.520       .  S
C380        C384   1.576       .  S
C380        C382   1.575       .  S
C380        H386   1.104       .  S
C381        H387   1.079       .  S
C381        C382   1.371       .  D
C383        H388   1.084       .  S
C383        C384   1.366       .  D
C384       C1445   1.507       .  S
C389        C390   1.527       .  S
C389        C395   1.530       .  S
C389        C393   1.537       .  S
C389        C997   1.559       .  S
C390        H397   1.081       .  S
C390        C391   1.376       .  D
C391        C392   1.557       .  S
C392        C396   1.559       .  S
C392        C394   1.555       .  S
C392        H398   1.105       .  S
C393        H399   1.079       .  S
C393        C394   1.381       .  D
C395        H400   1.085       .  S
C395        C396   1.360       .  D
C396       C1138   1.490       .  S
In401       O403   2.228       .  S
In401       O404   2.270       .  S
In401       O412   2.286       .  S
In401       O406   2.266       .  S
In401       O408   2.246       .  S
In401       O409   2.271       .  S
In401       O410   2.236       .  S
In401       O413   2.251       .  S
C402        O408   1.263       .  A
C402        O410   1.256       .  A
C402        C962   1.487       .  S
O403        C411   1.259       .  A
O404        C411   1.262       .  A
C405        O412   1.264       .  A
C405        O406   1.259       .  A
C405       C1717   1.511       .  S
C407        O409   1.262       .  A
C407        O413   1.259       .  A
C407        C978   1.493       .  S
C411        C946   1.494       .  S
In414       O416   2.273       .  S
In414       O417   2.275       .  S
In414       O425   2.307       .  S
In414       O419   2.245       .  S
In414       O421   2.240       .  S
In414       O422   2.291       .  S
In414       O423   2.265       .  S
In414       O426   2.237       .  S
C415        O421   1.261       .  A
C415        O423   1.261       .  A
C415        C930   1.490       .  S
O416        C424   1.259       .  A
O417        C424   1.258       .  A
C418        O425   1.264       .  A
C418        O419   1.254       .  A
C418       C1621   1.510       .  S
C420        O422   1.263       .  A
C420        O426   1.257       .  A
C420        C914   1.491       .  S
C424        C981   1.500       .  S
In427       O429   2.238       .  S
In427       O430   2.297       .  S
In427       O438   2.299       .  S
In427       O432   2.246       .  S
In427       O434   2.261       .  S
In427       O435   2.259       .  S
In427       O436   2.249       .  S
In427       O439   2.247       .  S
C428        O434   1.261       .  A
C428        O436   1.256       .  A
C428        C933   1.486       .  S
O429        C437   1.258       .  A
O430        C437   1.262       .  A
C431        O438   1.265       .  A
C431        O432   1.259       .  A
C431       C1045   1.503       .  S
C433        O435   1.263       .  A
C433        O439   1.260       .  A
C433        C882   1.484       .  S
C437        C898   1.502       .  S
In440       O442   2.222       .  S
In440       O443   2.247       .  S
In440       O451   2.275       .  S
In440       O445   2.267       .  S
In440       O447   2.258       .  S
In440       O448   2.276       .  S
In440       O449   2.234       .  S
In440       O452   2.232       .  S
C441        O447   1.263       .  A
C441        O449   1.255       .  A
C441        C965   1.470       .  S
O442        C450   1.262   1_655  A
O443        C450   1.263   1_655  A
C444        O451   1.261       .  A
C444        O445   1.261       .  A
C444       C1826   1.496       .  S
C446        O448   1.264       .  A
C446        O452   1.258       .  A
C446        C901   1.496       .  S
C450        C866   1.487       .  S
In453       O455   2.255       .  S
In453       O456   2.278       .  S
In453       O464   2.270       .  S
In453       O458   2.253       .  S
In453       O460   2.243       .  S
In453       O461   2.253       .  S
In453       O462   2.231       .  S
In453       O465   2.251       .  S
C454        O460   1.259       .  A
C454        O462   1.261       .  A
C454        C834   1.478       .  S
O455        C463   1.257       .  A
O456        C463   1.262       .  A
C457        O464   1.262       .  A
C457        O458   1.261       .  A
C457       C1586   1.501       .  S
C459        O461   1.262       .  A
C459        O465   1.259       .  A
C459        C818   1.496       .  S
C463        C853   1.493       .  S
In466       O468   2.226       .  S
In466       O469   2.256       .  S
In466       O477   2.289       .  S
In466       O471   2.249       .  S
In466       O473   2.260       .  S
In466       O474   2.263       .  S
In466       O475   2.227       .  S
In466       O478   2.259       .  S
C467        O473   1.262       .  A
C467        O475   1.258       .  A
C467        C802   1.488       .  S
O468        C476   1.256       .  A
O469        C476   1.264       .  A
C470        O477   1.262       .  A
C470        O471   1.261       .  A
C470       C1685   1.505       .  S
C472        O474   1.261       .  A
C472        O478   1.262       .  A
C472        C850   1.497       .  S
C476        C869   1.491       .  S
In479       O481   2.216       .  S
In479       O482   2.254       .  S
In479       O490   2.272       .  S
In479       O484   2.263       .  S
In479       O486   2.254       .  S
In479       O487   2.267       .  S
In479       O488   2.239       .  S
In479       O491   2.246       .  S
C480        O486   1.262       .  A
C480        O488   1.257       .  A
C480        C805   1.477       .  S
O481        C489   1.261       .  A
O482        C489   1.263       .  A
C483        O490   1.261       .  A
C483        O484   1.261       .  A
C483       C1861   1.506       .  S
C485        O487   1.260       .  A
C485        O491   1.261       .  A
C485        C789   1.494       .  S
C489        C773   1.484       .  S
In492       O494   2.242       .  S
In492       O495   2.283       .  S
In492       O503   2.285       .  S
In492       O497   2.239       .  S
In492       O499   2.238       .  S
In492       O500   2.269       .  S
In492       O501   2.226       .  S
In492       O504   2.259       .  S
C493        O499   1.262       .  A
C493        O501   1.260       .  A
C493        C837   1.477       .  S
O494        C502   1.256       .  A
O495        C502   1.263       .  A
C496        O503   1.265       .  A
C496        O497   1.256       .  A
C496       C1029   1.496       .  S
C498        O500   1.262       .  A
C498        O504   1.256       .  A
C498        C917   1.501       .  S
C502        C786   1.499       .  S
In505       O507   2.249       .  S
In505       O508   2.272       .  S
In505       O516   2.281       .  S
In505       O510   2.246       .  S
In505       O512   2.251       .  S
In505       O513   2.238       .  S
In505       O514   2.223       .  S
In505       O517   2.275       .  S
C506        O512   1.263       .  A
C506        O514   1.258       .  A
C506        C738   1.485       .  S
O507        C515   1.261       .  A
O508        C515   1.260       .  A
C509        O516   1.264       .  A
C509        O510   1.257       .  A
C509        C994   1.496       .  S
C511        O513   1.258       .  A
C511        O517   1.263       .  A
C511        C821   1.496       .  S
C515        C754   1.500       .  S
In518       O520   2.230       .  S
In518       O521   2.258       .  S
In518       O529   2.266       .  S
In518       O523   2.236       .  S
In518       O525   2.244       .  S
In518       O526   2.276       .  S
In518       O527   2.226       .  S
In518       O530   2.236       .  S
C519        O525   1.263       .  A
C519        O527   1.257       .  A
C519        C725   1.478       .  S
O520        C528   1.258       .  A
O521        C528   1.265       .  A
C522        O529   1.263       .  A
C522        O523   1.260       .  A
C522       C1765   1.498       .  S
C524        O526   1.264       .  A
C524        O530   1.257       .  A
C524        C757   1.497       .  S
C528        C709   1.483       .  S
In531       O533   2.223       .  S
In531       O534   2.280       .  S
In531       O542   2.280       .  S
In531       O536   2.228       .  S
In531       O538   2.226       .  S
In531       O539   2.268       .  S
In531       O540   2.250       .  S
In531       O543   2.238       .  S
C532        O538   1.260       .  A
C532        O540   1.260       .  A
C532        C741   1.483       .  S
O533        C541   1.258       .  A
O534        C541   1.263       .  A
C535        O542   1.265       .  A
C535        O536   1.254       .  A
C535       C1525   1.492       .  S
C537        O539   1.261       .  A
C537        O543   1.259       .  A
C537        C674   1.492       .  S
C541        C693   1.494       .  S
In544       O546   2.224       .  S
In544       O547   2.251       .  S
In544       O555   2.276       .  S
In544       O549   2.248       .  S
In544       O551   2.238       .  S
In544       O552   2.279       .  S
In544       O553   2.242       .  S
In544       O556   2.223       .  S
C545        O551   1.262       .  A
C545        O553   1.257       .  A
C545        C722   1.477       .  S
O546        C554   1.258       .  A
O547        C554   1.263       .  A
C548        O555   1.263       .  A
C548        O549   1.258       .  A
C548       C1650   1.488       .  S
C550        O552   1.264       .  A
C550        O556   1.256       .  A
C550        C690   1.492       .  S
C554        C770   1.478   1_545  S
In557       O559   2.248       .  S
In557       O560   2.257       .  S
In557       O568   2.258       .  S
In557       O562   2.244       .  S
In557       O564   2.246       .  S
In557       O565   2.280       .  S
In557       O566   2.224       .  S
In557       O569   2.225       .  S
C558        O564   1.262       .  A
C558        O566   1.260       .  A
C558        C642   1.482       .  S
O559        C567   1.259       .  A
O560        C567   1.264       .  A
C561        O568   1.262       .  A
C561        O562   1.260       .  A
C561       C1013   1.492       .  S
C563        O565   1.265       .  A
C563        O569   1.256       .  A
C563        C677   1.492       .  S
C567        C658   1.493       .  S
In570       O572   2.215       .  S
In570       O573   2.266       .  S
In570       O581   2.255       .  S
In570       O575   2.254       .  S
In570       O577   2.241       .  S
In570       O578   2.249       .  S
In570       O579   2.208       .  S
In570       O582   2.243       .  S
C571        O577   1.266       .  A
C571        O579   1.257       .  A
C571        C626   1.467       .  S
O572        C580   1.257       .  A
O573        C580   1.267       .  A
C574        O581   1.264       .  A
C574        O575   1.260       .  A
C574       C1794   1.499       .  S
C576        O578   1.264       .  A
C576        O582   1.261       .  A
C576        C661   1.491       .  S
C580        C949   1.490       .  S
In583       O585   2.238       .  S
In583       O586   2.258       .  S
In583       O594   2.268       .  S
In583       O588   2.240       .  S
In583       O590   2.232       .  S
In583       O591   2.254       .  S
In583       O592   2.225       .  S
In583       O595   2.238       .  S
C584        O590   1.261       .  A
C584        O592   1.259       .  A
C584        C629   1.470       .  S
O585        C593   1.260       .  A
O586        C593   1.262       .  A
C587        O594   1.265       .  A
C587        O588   1.257       .  A
C587       C1749   1.498       .  S
C589        O591   1.263       .  A
C589        O595   1.260       .  A
C589        C610   1.485       .  S
C593        C706   1.493   1_655  S
In596       O598   2.242       .  S
In596       O599   2.259       .  S
In596       O607   2.256       .  S
In596       O601   2.238       .  S
In596       O603   2.238       .  S
In596       O604   2.267       .  S
In596       O605   2.231       .  S
In596       O608   2.227       .  S
C597        O603   1.261       .  A
C597        O605   1.260       .  A
C597        C645   1.473       .  S
O598        C606   1.257       .  A
O599        C606   1.263       .  A
C600        O607   1.262       .  A
C600        O601   1.259       .  A
C600       C1554   1.487       .  S
C602        O604   1.264       .  A
C602        O608   1.260       .  A
C602        C885   1.485       .  S
C606        C613   1.484       .  S
C609        C610   1.405       .  A
C609        C614   1.409       .  A
C609        H616   1.083       .  S
C610        C611   1.421       .  A
C611        C618   1.521       .  S
C611        C612   1.408       .  A
C612        C613   1.403       .  A
C612        H617   1.083       .  S
C613        C614   1.418       .  A
C614        C615   1.517       .  S
C615        F619   1.385       .  S
C615        F620   1.384       .  S
C615        F621   1.383       .  S
C618        F622   1.382       .  S
C618        F623   1.384       .  S
C618        F624   1.385       .  S
C625        C626   1.405       .  A
C625        C630   1.402       .  A
C625        H632   1.084       .  S
C626        C627   1.410       .  A
C627        C634   1.517       .  S
C627        C628   1.402       .  A
C628        C629   1.407       .  A
C628        H633   1.083       .  S
C629        C630   1.414       .  A
C630        C631   1.519       .  S
C631        F635   1.385       .  S
C631        F636   1.382       .  S
C631        F637   1.383       .  S
C634        F638   1.382       .  S
C634        F639   1.384       .  S
C634        F640   1.384       .  S
C641        C642   1.407       .  A
C641        C646   1.402       .  A
C641        H648   1.083       .  S
C642        C643   1.419       .  A
C643        C650   1.519       .  S
C643        C644   1.406       .  A
C644        C645   1.404       .  A
C644        H649   1.083       .  S
C645        C646   1.413       .  A
C646        C647   1.519       .  S
C647        F651   1.385       .  S
C647        F652   1.383       .  S
C647        F653   1.383       .  S
C650        F654   1.383       .  S
C650        F655   1.382       .  S
C650        F656   1.385       .  S
C657        C658   1.404       .  A
C657        C662   1.409       .  A
C657        H664   1.082       .  S
C658        C659   1.421       .  A
C659        C666   1.518       .  S
C659        C660   1.411       .  A
C660        C661   1.406       .  A
C660        H665   1.083       .  S
C661        C662   1.422       .  A
C662        C663   1.521       .  S
C663        F667   1.384       .  S
C663        F668   1.383       .  S
C663        F669   1.384       .  S
C666        F670   1.384       .  S
C666        F671   1.383       .  S
C666        F672   1.385       .  S
C673        C674   1.403       .  A
C673        C678   1.406       .  A
C673        H680   1.083       .  S
C674        C675   1.422       .  A
C675        C682   1.519       .  S
C675        C676   1.414       .  A
C676        C677   1.405       .  A
C676        H681   1.083       .  S
C677        C678   1.424       .  A
C678        C679   1.522       .  S
C679        F683   1.385       .  S
C679        F684   1.381       .  S
C679        F685   1.383       .  S
C682        F686   1.383       .  S
C682        F687   1.384       .  S
C682        F688   1.384       .  S
C689        C690   1.408       .  A
C689        C694   1.415       .  A
C689        H696   1.082       .  S
C690        C691   1.420       .  A
C691        C698   1.520       .  S
C691        C692   1.404       .  A
C692        C693   1.405       .  A
C692        H697   1.083       .  S
C693        C694   1.421       .  A
C694        C695   1.518       .  S
C695        F699   1.385       .  S
C695        F700   1.383       .  S
C695        F701   1.383       .  S
C698        F702   1.383       .  S
C698        F703   1.384       .  S
C698        F704   1.385       .  S
C705        C706   1.409       .  A
C705        C710   1.407       .  A
C705        H712   1.083   1_455  S
C706        C707   1.421       .  A
C707        C714   1.518       .  S
C707        C708   1.410       .  A
C708        C709   1.404       .  A
C708        H713   1.083       .  S
C709        C710   1.416       .  A
C710        C711   1.521       .  S
C711        F715   1.385   1_455  S
C711        F716   1.384       .  S
C711        F717   1.382       .  S
C714        F718   1.383       .  S
C714        F719   1.383       .  S
C714        F720   1.385       .  S
C721        C722   1.401       .  A
C721        C726   1.403       .  A
C721        H728   1.083       .  S
C722        C723   1.420       .  A
C723        C730   1.520       .  S
C723        C724   1.405       .  A
C724        C725   1.402       .  A
C724        H729   1.083       .  S
C725        C726   1.421       .  A
C726        C727   1.520       .  S
C727        F731   1.385       .  S
C727        F732   1.383       .  S
C727        F733   1.382       .  S
C730        F734   1.383       .  S
C730        F735   1.382       .  S
C730        F736   1.385       .  S
C737        C738   1.406       .  A
C737        C742   1.407       .  A
C737        H744   1.083       .  S
C738        C739   1.422       .  A
C739        C746   1.523       .  S
C739        C740   1.403       .  A
C740        C741   1.403       .  A
C740        H745   1.083       .  S
C741        C742   1.419       .  A
C742        C743   1.520       .  S
C743        F747   1.385       .  S
C743        F748   1.383       .  S
C743        F749   1.384       .  S
C746        F750   1.383       .  S
C746        F751   1.384       .  S
C746        F752   1.385       .  S
C753        C754   1.406       .  A
C753        C758   1.408       .  A
C753        H760   1.083       .  S
C754        C755   1.424       .  A
C755        C762   1.518       .  S
C755        C756   1.414       .  A
C756        C757   1.407       .  A
C756        H761   1.083       .  S
C757        C758   1.422       .  A
C758        C759   1.520       .  S
C759        F763   1.385       .  S
C759        F764   1.383       .  S
C759        F765   1.384       .  S
C762        F766   1.383       .  S
C762        F767   1.384       .  S
C762        F768   1.385       .  S
C769        C770   1.406       .  A
C769        C774   1.409       .  A
C769        H776   1.083   1_565  S
C770        C771   1.415       .  A
C771        C778   1.520       .  S
C771        C772   1.401       .  A
C772        C773   1.407       .  A
C772        H777   1.083       .  S
C773        C774   1.419       .  A
C774        C775   1.519       .  S
C775        F779   1.385   1_565  S
C775        F780   1.383       .  S
C775        F781   1.383       .  S
C778        F782   1.383       .  S
C778        F783   1.382       .  S
C778        F784   1.385       .  S
C785        C786   1.407       .  A
C785        C790   1.414       .  A
C785        H792   1.082       .  S
C786        C787   1.423       .  A
C787        C794   1.519       .  S
C787        C788   1.408       .  A
C788        C789   1.403       .  A
C788        H793   1.083       .  S
C789        C790   1.422       .  A
C790        C791   1.519       .  S
C791        F795   1.385       .  S
C791        F796   1.383       .  S
C791        F797   1.383       .  S
C794        F798   1.384       .  S
C794        F799   1.383       .  S
C794        F800   1.385       .  S
C801        C802   1.410       .  A
C801        C806   1.404       .  A
C801        H808   1.082       .  S
C802        C803   1.420       .  A
C803        C810   1.520       .  S
C803        C804   1.408       .  A
C804        C805   1.405       .  A
C804        H809   1.083       .  S
C805        C806   1.411       .  A
C806        C807   1.518       .  S
C807        F811   1.385       .  S
C807        F812   1.382       .  S
C807        F813   1.384       .  S
C810        F814   1.383       .  S
C810        F815   1.383       .  S
C810        F816   1.385       .  S
C817        C818   1.410       .  A
C817        C822   1.412       .  A
C817        H824   1.082       .  S
C818        C819   1.419       .  A
C819        C826   1.520       .  S
C819        C820   1.408       .  A
C820        C821   1.408       .  A
C820        H825   1.082       .  S
C821        C822   1.419       .  A
C822        C823   1.519       .  S
C823        F827   1.385       .  S
C823        F828   1.383       .  S
C823        F829   1.383       .  S
C826        F830   1.383       .  S
C826        F831   1.384       .  S
C826        F832   1.384       .  S
C833        C834   1.402       .  A
C833        C838   1.402       .  A
C833        H840   1.083       .  S
C834        C835   1.420       .  A
C835        C842   1.521       .  S
C835        C836   1.406       .  A
C836        C837   1.404       .  A
C836        H841   1.083       .  S
C837        C838   1.419       .  A
C838        C839   1.521       .  S
C839        F843   1.385       .  S
C839        F844   1.383       .  S
C839        F845   1.383       .  S
C842        F846   1.382       .  S
C842        F847   1.383       .  S
C842        F848   1.385       .  S
C849        C850   1.406       .  A
C849        C854   1.410       .  A
C849        H856   1.084       .  S
C850        C851   1.425       .  A
C851        C858   1.520       .  S
C851        C852   1.413       .  A
C852        C853   1.403       .  A
C852        H857   1.083       .  S
C853        C854   1.418       .  A
C854        C855   1.516       .  S
C855        F859   1.385       .  S
C855        F860   1.384       .  S
C855        F861   1.382       .  S
C858        F862   1.383       .  S
C858        F863   1.383       .  S
C858        F864   1.385       .  S
C865        C866   1.403       .  A
C865        C870   1.405       .  A
C865        H872   1.083       .  S
C866        C867   1.421       .  A
C867        C874   1.521       .  S
C867        C868   1.409       .  A
C868        C869   1.406       .  A
C868        H873   1.082       .  S
C869        C870   1.425       .  A
C870        C871   1.523       .  S
C871        F875   1.385       .  S
C871        F876   1.383       .  S
C871        F877   1.384       .  S
C874        F878   1.385       .  S
C874        F879   1.383   1_455  S
C874        F880   1.383       .  S
C881        C882   1.406       .  A
C881        C886   1.411       .  A
C881        H888   1.083       .  S
C882        C883   1.416       .  A
C883        C890   1.518       .  S
C883        C884   1.405       .  A
C884        C885   1.405       .  A
C884        H889   1.083       .  S
C885        C886   1.416       .  A
C886        C887   1.517       .  S
C887        F891   1.385       .  S
C887        F892   1.383       .  S
C887        F893   1.382       .  S
C890        F894   1.382       .  S
C890        F895   1.382       .  S
C890        F896   1.385       .  S
C897        C898   1.406       .  A
C897        C902   1.407       .  A
C897        H904   1.083       .  S
C898        C899   1.424       .  A
C899        C906   1.519       .  S
C899        C900   1.417       .  A
C900        C901   1.408       .  A
C900        H905   1.083       .  S
C901        C902   1.419       .  A
C902        C903   1.519       .  S
C903        F907   1.384       .  S
C903        F908   1.383       .  S
C903        F909   1.384       .  S
C906        F910   1.383       .  S
C906        F911   1.383       .  S
C906        F912   1.386       .  S
C913        C914   1.404       .  A
C913        C918   1.407       .  A
C913        H920   1.079       .  S
C914        C915   1.415       .  A
C915        C922   1.518       .  S
C915        C916   1.415       .  A
C916        C917   1.414       .  A
C916        H921   1.082       .  S
C917        C918   1.421       .  A
C918        C919   1.520       .  S
C919        F923   1.385       .  S
C919        F924   1.383       .  S
C919        F925   1.383       .  S
C922        F926   1.383       .  S
C922        F927   1.383       .  S
C922        F928   1.385       .  S
C929        C930   1.405       .  A
C929        C934   1.406       .  A
C929        H936   1.083       .  S
C930        C931   1.422       .  A
C931        C938   1.519       .  S
C931        C932   1.410       .  A
C932        C933   1.404       .  A
C932        H937   1.083       .  S
C933        C934   1.420       .  A
C934        C935   1.521       .  S
C935        F939   1.385       .  S
C935        F940   1.383       .  S
C935        F941   1.383       .  S
C938        F942   1.380       .  S
C938        F943   1.383       .  S
C938        F944   1.385       .  S
C945        C946   1.405       .  A
C945        C950   1.404       .  A
C945        H952   1.082       .  S
C946        C947   1.423       .  A
C947        C954   1.520       .  S
C947        C948   1.413       .  A
C948        C949   1.407   1_565  A
C948        H953   1.083   1_565  S
C949        C950   1.421   1_545  A
C950        C951   1.522       .  S
C951        F955   1.385       .  S
C951        F956   1.384       .  S
C951        F957   1.383   1_565  S
C954        F958   1.383       .  S
C954        F959   1.383       .  S
C954        F960   1.385       .  S
C961        C962   1.405       .  A
C961        C966   1.402       .  A
C961        H968   1.082       .  S
C962        C963   1.426       .  A
C963        C970   1.520       .  S
C963        C964   1.408       .  A
C964        C965   1.397       .  A
C964        H969   1.083       .  S
C965        C966   1.414       .  A
C966        C967   1.518       .  S
C967        F971   1.385       .  S
C967        F972   1.381       .  S
C967        F973   1.381       .  S
C970        F974   1.384       .  S
C970        F975   1.383       .  S
C970        F976   1.385       .  S
C977        C978   1.405       .  A
C977        C982   1.414       .  A
C977        H984   1.083       .  S
C978        C979   1.416       .  A
C979        C986   1.517       .  S
C979        C980   1.412       .  A
C980        C981   1.408       .  A
C980        H985   1.083       .  S
C981        C982   1.425       .  A
C982        C983   1.520       .  S
C983        F987   1.385       .  S
C983        F988   1.383       .  S
C983        F989   1.383       .  S
C986        F990   1.382       .  S
C986        F991   1.384       .  S
C986        F992   1.384       .  S
C993        C994   1.403       .  A
C993        C998   1.411       .  A
C993       H1000   1.085       .  S
C994        C995   1.414       .  A
C995       C1002   1.520       .  S
C995        C996   1.414       .  A
C996        C997   1.420       .  A
C996       H1001   1.077       .  S
C997        C998   1.434       .  A
C998        C999   1.525       .  S
C999       F1003   1.385       .  S
C999       F1004   1.383       .  S
C999       F1005   1.378       .  S
C1002      F1006   1.384       .  S
C1002      F1007   1.383       .  S
C1002      F1008   1.384       .  S
C1009      C1010   1.414       .  A
C1009      C1014   1.411       .  A
C1009      H1016   1.078       .  S
C1010      C1011   1.433       .  A
C1011      C1018   1.527       .  S
C1011      C1012   1.407       .  A
C1012      C1013   1.403       .  A
C1012      H1017   1.085       .  S
C1013      C1014   1.417       .  A
C1014      C1015   1.519       .  S
C1015      F1019   1.384       .  S
C1015      F1020   1.383       .  S
C1015      F1021   1.383       .  S
C1018      F1022   1.378       .  S
C1018      F1023   1.384       .  S
C1018      F1024   1.383       .  S
C1025      C1026   1.415       .  A
C1025      C1030   1.410       .  A
C1025      H1032   1.076       .  S
C1026      C1027   1.436       .  A
C1027      C1034   1.522       .  S
C1027      C1028   1.413       .  A
C1028      C1029   1.401       .  A
C1028      H1033   1.085       .  S
C1029      C1030   1.419       .  A
C1030      C1031   1.523       .  S
C1031      F1035   1.384       .  S
C1031      F1036   1.383       .  S
C1031      F1037   1.384       .  S
C1034      F1038   1.382       .  S
C1034      F1039   1.375       .  S
C1034      F1040   1.384       .  S
C1041      C1042   1.419       .  A
C1041      C1046   1.418       .  A
C1041      H1048   1.079       .  S
C1042      C1043   1.440       .  A
C1043      C1050   1.525       .  S
C1043      C1044   1.411       .  A
C1044      C1045   1.399       .  A
C1044      H1049   1.084       .  S
C1045      C1046   1.417       .  A
C1046      C1047   1.517       .  S
C1047      F1051   1.385       .  S
C1047      F1052   1.383       .  S
C1047      F1053   1.382       .  S
C1050      F1054   1.385       .  S
C1050      F1055   1.376       .  S
C1050      F1056   1.381       .  S
C1057      C1058   1.403       .  A
C1057      C1062   1.409       .  A
C1057      H1064   1.083       .  S
C1058      C1059   1.424       .  A
C1059      C1066   1.518       .  S
C1059      C1060   1.413       .  A
C1060      C1061   1.403       .  A
C1060      H1065   1.083       .  S
C1061      C1062   1.414       .  A
C1062      C1063   1.508       .  S
C1063      F1067   1.385       .  S
C1063      F1068   1.380       .  S
C1063      F1069   1.383       .  S
C1066      F1070   1.383       .  S
C1066      F1071   1.383       .  S
C1066      F1072   1.384       .  S
C1073      C1074   1.407       .  A
C1073      C1078   1.411       .  A
C1073      H1080   1.082       .  S
C1074      C1075   1.423       .  A
C1075      C1082   1.522       .  S
C1075      C1076   1.408       .  A
C1076      C1077   1.406       .  A
C1076      H1081   1.082       .  S
C1077      C1078   1.422       .  A
C1078      C1079   1.520       .  S
C1079      F1083   1.385       .  S
C1079      F1084   1.384       .  S
C1079      F1085   1.383       .  S
C1082      F1086   1.384       .  S
C1082      F1087   1.383       .  S
C1082      F1088   1.384       .  S
C1089      C1090   1.407       .  A
C1089      C1094   1.404       .  A
C1089      H1096   1.082       .  S
C1090      C1091   1.422       .  A
C1091      C1098   1.522       .  S
C1091      C1092   1.405       .  A
C1092      C1093   1.404       .  A
C1092      H1097   1.083       .  S
C1093      C1094   1.416       .  A
C1094      C1095   1.520       .  S
C1095      F1099   1.385       .  S
C1095      F1100   1.384       .  S
C1095      F1101   1.382       .  S
C1098      F1102   1.383       .  S
C1098      F1103   1.383       .  S
C1098      F1104   1.385       .  S
C1105      C1106   1.402       .  A
C1105      C1110   1.401       .  A
C1105      H1112   1.083       .  S
C1106      C1107   1.422       .  A
C1107      C1114   1.520       .  S
C1107      C1108   1.403       .  A
C1108      C1109   1.400       .  A
C1108      H1113   1.083       .  S
C1109      C1110   1.419       .  A
C1110      C1111   1.519       .  S
C1111      F1115   1.385       .  S
C1111      F1116   1.383       .  S
C1111      F1117   1.381       .  S
C1114      F1118   1.383       .  S
C1114      F1119   1.383       .  S
C1114      F1120   1.385       .  S
C1121      C1122   1.405       .  A
C1121      C1126   1.412       .  A
C1121      H1128   1.083       .  S
C1122      C1123   1.422       .  A
C1123      C1130   1.521       .  S
C1123      C1124   1.413       .  A
C1124      C1125   1.408       .  A
C1124      H1129   1.082       .  S
C1125      C1126   1.424       .  A
C1126      C1127   1.519       .  S
C1127      F1131   1.385       .  S
C1127      F1132   1.383       .  S
C1127      F1133   1.383       .  S
C1130      F1134   1.383       .  S
C1130      F1135   1.384       .  S
C1130      F1136   1.385       .  S
C1137      C1138   1.403       .  A
C1137      C1142   1.414       .  A
C1137      H1144   1.084       .  S
C1138      C1139   1.413       .  A
C1139      C1146   1.515       .  S
C1139      C1140   1.410       .  A
C1140      C1141   1.410       .  A
C1140      H1145   1.082       .  S
C1141      C1142   1.425       .  A
C1142      C1143   1.517       .  S
C1143      F1147   1.383       .  S
C1143      F1148   1.384       .  S
C1143      F1149   1.383       .  S
C1146      F1150   1.381       .  S
C1146      F1151   1.382       .  S
C1146      F1152   1.385       .  S
C1153      C1154   1.406       .  A
C1153      C1158   1.410       .  A
C1153      H1160   1.082       .  S
C1154      C1155   1.421       .  A
C1155      C1162   1.522       .  S
C1155      C1156   1.408       .  A
C1156      C1157   1.407       .  A
C1156      H1161   1.082       .  S
C1157      C1158   1.421       .  A
C1158      C1159   1.519       .  S
C1159      F1163   1.385       .  S
C1159      F1164   1.383       .  S
C1159      F1165   1.384       .  S
C1162      F1166   1.384       .  S
C1162      F1167   1.384       .  S
C1162      F1168   1.385       .  S
C1169      C1170   1.407       .  A
C1169      C1174   1.410       .  A
C1169      H1176   1.082       .  S
C1170      C1171   1.421       .  A
C1171      C1178   1.519       .  S
C1171      C1172   1.408       .  A
C1172      C1173   1.407       .  A
C1172      H1177   1.083       .  S
C1173      C1174   1.420       .  A
C1174      C1175   1.520       .  S
C1175      F1179   1.385       .  S
C1175      F1180   1.384       .  S
C1175      F1181   1.383       .  S
C1178      F1182   1.383       .  S
C1178      F1183   1.383       .  S
C1178      F1184   1.385       .  S
C1185      C1186   1.403       .  A
C1185      C1190   1.408   1_565  A
C1185      H1192   1.083       .  S
C1186      C1187   1.424       .  A
C1187      C1194   1.521       .  S
C1187      C1188   1.408       .  A
C1188      C1189   1.402       .  A
C1188      H1193   1.083       .  S
C1189      C1190   1.423   1_565  A
C1190      C1191   1.522       .  S
C1191      F1195   1.385       .  S
C1191      F1196   1.383       .  S
C1191      F1197   1.383       .  S
C1194      F1198   1.383       .  S
C1194      F1199   1.383       .  S
C1194      F1200   1.385       .  S
C1201      C1202   1.406       .  A
C1201      C1206   1.405       .  A
C1201      H1208   1.082       .  S
C1202      C1203   1.421       .  A
C1203      C1210   1.522       .  S
C1203      C1204   1.403       .  A
C1204      C1205   1.404       .  A
C1204      H1209   1.082       .  S
C1205      C1206   1.421       .  A
C1206      C1207   1.523       .  S
C1207      F1211   1.385       .  S
C1207      F1212   1.384       .  S
C1207      F1213   1.384       .  S
C1210      F1214   1.384       .  S
C1210      F1215   1.383       .  S
C1210      F1216   1.384       .  S
C1217      C1218   1.398       .  A
C1217      C1222   1.406       .  A
C1217      H1224   1.083       .  S
C1218      C1219   1.418       .  A
C1219      C1226   1.519       .  S
C1219      C1220   1.402       .  A
C1220      C1221   1.403       .  A
C1220      H1225   1.082       .  S
C1221      C1222   1.425       .  A
C1222      C1223   1.520       .  S
C1223      F1227   1.385       .  S
C1223      F1228   1.384       .  S
C1223      F1229   1.383       .  S
C1226      F1230   1.385       .  S
C1226      F1231   1.383       .  S
C1226      F1232   1.381       .  S
C1233      C1234   1.405       .  A
C1233      C1238   1.410       .  A
C1233      H1240   1.083       .  S
C1234      C1235   1.419       .  A
C1235      C1242   1.522       .  S
C1235      C1236   1.405       .  A
C1236      C1237   1.403       .  A
C1236      H1241   1.083       .  S
C1237      C1238   1.417       .  A
C1238      C1239   1.516       .  S
C1239      F1243   1.385       .  S
C1239      F1244   1.382       .  S
C1239      F1245   1.383       .  S
C1242      F1246   1.384       .  S
C1242      F1247   1.382       .  S
C1242      F1248   1.385       .  S
C1249      C1250   1.405       .  A
C1249      C1254   1.407       .  A
C1249      H1256   1.084       .  S
C1250      C1251   1.424       .  A
C1251      C1258   1.518       .  S
C1251      C1252   1.418       .  A
C1252      C1253   1.405       .  A
C1252      H1257   1.080       .  S
C1253      C1254   1.422       .  A
C1254      C1255   1.517       .  S
C1255      F1259   1.382       .  S
C1255      F1260   1.379       .  S
C1255      F1261   1.383       .  S
C1258      F1262   1.384       .  S
C1258      F1263   1.383       .  S
C1258      F1264   1.382       .  S
C1265      C1266   1.409       .  A
C1265      C1270   1.412       .  A
C1265      H1272   1.083       .  S
C1266      C1267   1.428       .  A
C1267      C1274   1.522   1_455  S
C1267      C1268   1.408       .  A
C1268      C1269   1.400       .  A
C1268      H1273   1.083       .  S
C1269      C1270   1.416       .  A
C1270      C1271   1.518       .  S
C1271      F1275   1.384       .  S
C1271      F1276   1.384       .  S
C1271      F1277   1.382       .  S
C1274      F1278   1.382       .  S
C1274      F1279   1.383   1_655  S
C1274      F1280   1.385       .  S
C1281      C1282   1.407       .  A
C1281      C1286   1.405       .  A
C1281      H1288   1.083       .  S
C1282      C1283   1.426       .  A
C1283      C1290   1.519       .  S
C1283      C1284   1.413       .  A
C1284      C1285   1.405       .  A
C1284      H1289   1.083       .  S
C1285      C1286   1.415       .  A
C1286      C1287   1.516       .  S
C1287      F1291   1.384       .  S
C1287      F1292   1.383       .  S
C1287      F1293   1.384       .  S
C1290      F1294   1.383       .  S
C1290      F1295   1.383       .  S
C1290      F1296   1.385       .  S
C1297      C1298   1.405       .  A
C1297      C1302   1.409       .  A
C1297      H1304   1.083       .  S
C1298      C1299   1.416       .  A
C1299      C1306   1.519       .  S
C1299      C1300   1.405       .  A
C1300      C1301   1.405       .  A
C1300      H1305   1.082       .  S
C1301      C1302   1.420       .  A
C1302      C1303   1.519       .  S
C1303      F1307   1.385       .  S
C1303      F1308   1.384       .  S
C1303      F1309   1.382       .  S
C1306      F1310   1.385       .  S
C1306      F1311   1.384       .  S
C1306      F1312   1.383       .  S
C1313      C1314   1.409       .  A
C1313      C1318   1.406       .  A
C1313      H1320   1.082       .  S
C1314      C1315   1.420       .  A
C1315      C1322   1.519       .  S
C1315      C1316   1.410       .  A
C1316      C1317   1.405       .  A
C1316      H1321   1.083       .  S
C1317      C1318   1.414       .  A
C1318      C1319   1.520       .  S
C1319      F1323   1.385       .  S
C1319      F1324   1.384       .  S
C1319      F1325   1.383       .  S
C1322      F1326   1.382       .  S
C1322      F1327   1.384       .  S
C1322      F1328   1.385       .  S
C1329      C1330   1.409       .  A
C1329      C1334   1.405       .  A
C1329      H1336   1.083       .  S
C1330      C1331   1.415       .  A
C1331      C1338   1.518       .  S
C1331      C1332   1.404       .  A
C1332      C1333   1.406       .  A
C1332      H1337   1.083       .  S
C1333      C1334   1.413       .  A
C1334      C1335   1.518       .  S
C1335      F1339   1.385       .  S
C1335      F1340   1.382       .  S
C1335      F1341   1.384       .  S
C1338      F1342   1.382       .  S
C1338      F1343   1.384       .  S
C1338      F1344   1.385       .  S
C1345      C1346   1.408       .  A
C1345      C1350   1.415       .  A
C1345      H1352   1.083       .  S
C1346      C1347   1.424       .  A
C1347      C1354   1.519       .  S
C1347      C1348   1.411       .  A
C1348      C1349   1.405       .  A
C1348      H1353   1.082       .  S
C1349      C1350   1.422       .  A
C1350      C1351   1.519       .  S
C1351      F1355   1.385       .  S
C1351      F1356   1.384       .  S
C1351      F1357   1.382       .  S
C1354      F1358   1.383       .  S
C1354      F1359   1.383       .  S
C1354      F1360   1.385       .  S
C1361      C1362   1.407       .  A
C1361      C1366   1.410       .  A
C1361      H1368   1.082       .  S
C1362      C1363   1.425       .  A
C1363      C1370   1.522       .  S
C1363      C1364   1.409       .  A
C1364      C1365   1.405       .  A
C1364      H1369   1.082       .  S
C1365      C1366   1.421       .  A
C1366      C1367   1.519       .  S
C1367      F1371   1.385       .  S
C1367      F1372   1.382       .  S
C1367      F1373   1.383       .  S
C1370      F1374   1.383       .  S
C1370      F1375   1.384       .  S
C1370      F1376   1.385       .  S
C1377      C1378   1.407       .  A
C1377      C1382   1.410       .  A
C1377      H1384   1.082       .  S
C1378      C1379   1.427       .  A
C1379      C1386   1.520   1_455  S
C1379      C1380   1.410       .  A
C1380      C1381   1.400       .  A
C1380      H1385   1.083       .  S
C1381      C1382   1.421       .  A
C1382      C1383   1.521       .  S
C1383      F1387   1.385       .  S
C1383      F1388   1.383       .  S
C1383      F1389   1.383       .  S
C1386      F1390   1.384       .  S
C1386      F1391   1.383       .  S
C1386      F1392   1.385       .  S
C1393      C1394   1.404       .  A
C1393      C1398   1.409       .  A
C1393      H1400   1.082       .  S
C1394      C1395   1.423       .  A
C1395      C1402   1.518       .  S
C1395      C1396   1.415       .  A
C1396      C1397   1.406       .  A
C1396      H1401   1.083       .  S
C1397      C1398   1.422       .  A
C1398      C1399   1.520       .  S
C1399      F1403   1.385       .  S
C1399      F1404   1.383       .  S
C1399      F1405   1.383       .  S
C1402      F1406   1.384       .  S
C1402      F1407   1.382       .  S
C1402      F1408   1.385       .  S
C1409      C1410   1.411   1_545  A
C1409      C1414   1.413   1_545  A
C1409      H1416   1.082       .  S
C1410      C1411   1.422       .  A
C1411      C1418   1.521       .  S
C1411      C1412   1.407       .  A
C1412      C1413   1.405       .  A
C1412      H1417   1.083       .  S
C1413      C1414   1.417       .  A
C1414      C1415   1.518       .  S
C1415      F1419   1.385   1_565  S
C1415      F1420   1.383       .  S
C1415      F1421   1.383       .  S
C1418      F1422   1.383       .  S
C1418      F1423   1.384       .  S
C1418      F1424   1.385       .  S
C1425      C1426   1.403       .  A
C1425      C1430   1.406       .  A
C1425      H1432   1.083       .  S
C1426      C1427   1.419       .  A
C1427      C1434   1.521       .  S
C1427      C1428   1.402       .  A
C1428      C1429   1.401       .  A
C1428      H1433   1.083       .  S
C1429      C1430   1.418       .  A
C1430      C1431   1.521       .  S
C1431      F1435   1.384       .  S
C1431      F1436   1.383       .  S
C1431      F1437   1.384       .  S
C1434      F1438   1.383       .  S
C1434      F1439   1.384       .  S
C1434      F1440   1.384       .  S
C1441      C1442   1.410       .  A
C1441      C1446   1.417       .  A
C1441      H1448   1.083       .  S
C1442      C1443   1.420       .  A
C1443      C1450   1.519       .  S
C1443      C1444   1.412       .  A
C1444      C1445   1.411       .  A
C1444      H1449   1.083       .  S
C1445      C1446   1.414       .  A
C1446      C1447   1.510       .  S
C1447      F1451   1.382       .  S
C1447      F1452   1.381       .  S
C1447      F1453   1.382       .  S
C1450      F1454   1.383       .  S
C1450      F1455   1.384       .  S
C1450      F1456   1.385       .  S
C1457      C1458   1.410       .  A
C1457      C1462   1.405       .  A
C1457      H1464   1.083       .  S
C1458      C1459   1.423       .  A
C1459      C1466   1.519       .  S
C1459      C1460   1.412       .  A
C1460      C1461   1.405       .  A
C1460      H1465   1.083       .  S
C1461      C1462   1.414       .  A
C1462      C1463   1.519       .  S
C1463      F1467   1.385       .  S
C1463      F1468   1.384       .  S
C1463      F1469   1.383       .  S
C1466      F1470   1.383       .  S
C1466      F1471   1.383       .  S
C1466      F1472   1.385       .  S
C1473      C1474   1.398       .  A
C1473      C1478   1.407       .  A
C1473      H1480   1.083       .  S
C1474      C1475   1.418       .  A
C1475      C1482   1.519       .  S
C1475      C1476   1.400       .  A
C1476      C1477   1.400       .  A
C1476      H1481   1.083       .  S
C1477      C1478   1.425       .  A
C1478      C1479   1.521       .  S
C1479      F1483   1.385       .  S
C1479      F1484   1.383       .  S
C1479      F1485   1.382       .  S
C1482      F1486   1.381       .  S
C1482      F1487   1.381       .  S
C1482      F1488   1.384       .  S
C1489      C1490   1.403       .  A
C1489      C1494   1.409       .  A
C1489      H1496   1.082       .  S
C1490      C1491   1.419       .  A
C1491      C1498   1.518       .  S
C1491      C1492   1.413       .  A
C1492      C1493   1.407       .  A
C1492      H1497   1.083       .  S
C1493      C1494   1.424       .  A
C1494      C1495   1.520       .  S
C1495      F1499   1.385       .  S
C1495      F1500   1.383       .  S
C1495      F1501   1.383       .  S
C1498      F1502   1.384       .  S
C1498      F1503   1.382       .  S
C1498      F1504   1.384       .  S
C1505      C1506   1.406       .  A
C1505      C1510   1.412       .  A
C1505      H1512   1.083       .  S
C1506      C1507   1.412       .  A
C1507      C1514   1.514       .  S
C1507      C1508   1.412       .  A
C1508      C1509   1.410       .  A
C1508      H1513   1.082       .  S
C1509      C1510   1.424       .  A
C1510      C1511   1.521       .  S
C1511      F1515   1.385       .  S
C1511      F1516   1.384       .  S
C1511      F1517   1.383       .  S
C1514      F1518   1.382       .  S
C1514      F1519   1.383       .  S
C1514      F1520   1.384       .  S
C1521      C1522   1.413       .  A
C1521      C1526   1.407       .  A
C1521      H1528   1.079       .  S
C1522      C1523   1.431       .  A
C1523      C1530   1.521       .  S
C1523      C1524   1.411       .  A
C1524      C1525   1.402       .  A
C1524      H1529   1.084       .  S
C1525      C1526   1.421       .  A
C1526      C1527   1.524       .  S
C1527      F1531   1.385       .  S
C1527      F1532   1.382       .  S
C1527      F1533   1.383       .  S
C1530      F1534   1.382       .  S
C1530      F1535   1.380       .  S
C1530      F1536   1.385       .  S
C1537      C1538   1.406       .  A
C1537      C1542   1.412       .  A
C1537      H1544   1.084       .  S
C1538      C1539   1.412       .  A
C1539      C1546   1.514       .  S
C1539      C1540   1.414       .  A
C1540      C1541   1.413       .  A
C1540      H1545   1.082       .  S
C1541      C1542   1.425       .  A
C1542      C1543   1.521       .  S
C1543      F1547   1.385       .  S
C1543      F1548   1.383       .  S
C1543      F1549   1.383       .  S
C1546      F1550   1.383       .  S
C1546      F1551   1.382       .  S
C1546      F1552   1.385       .  S
C1553      C1554   1.399       .  A
C1553      C1558   1.407       .  A
C1553      H1560   1.085       .  S
C1554      C1555   1.414       .  A
C1555      C1562   1.521       .  S
C1555      C1556   1.408       .  A
C1556      C1557   1.415       .  A
C1556      H1561   1.075       .  S
C1557      C1558   1.437       .  A
C1558      C1559   1.529       .  S
C1559      F1563   1.385       .  S
C1559      F1564   1.376       .  S
C1559      F1565   1.382       .  S
C1562      F1566   1.383       .  S
C1562      F1567   1.384       .  S
C1562      F1568   1.385       .  S
C1569      C1570   1.399       .  A
C1569      C1574   1.415       .  A
C1569      H1576   1.083       .  S
C1570      C1571   1.424       .  A
C1571      C1578   1.521       .  S
C1571      C1572   1.403       .  A
C1572      C1573   1.403       .  A
C1572      H1577   1.084       .  S
C1573      C1574   1.429       .  A
C1574      C1575   1.517       .  S
C1575      F1579   1.384       .  S
C1575      F1580   1.383       .  S
C1575      F1581   1.383       .  S
C1578      F1582   1.383       .  S
C1578      F1583   1.381       .  S
C1578      F1584   1.383       .  S
C1585      C1586   1.402       .  A
C1585      C1590   1.412       .  A
C1585      H1592   1.083       .  S
C1586      C1587   1.419       .  A
C1587      C1594   1.520       .  S
C1587      C1588   1.414       .  A
C1588      C1589   1.416       .  A
C1588      H1593   1.077       .  S
C1589      C1590   1.437       .  A
C1590      C1591   1.528       .  S
C1591      F1595   1.386       .  S
C1591      F1596   1.379       .  S
C1591      F1597   1.381       .  S
C1594      F1598   1.383       .  S
C1594      F1599   1.383       .  S
C1594      F1600   1.385       .  S
C1601      C1602   1.401       .  A
C1601      C1606   1.416       .  A
C1601      H1608   1.084       .  S
C1602      C1603   1.415       .  A
C1603      C1610   1.516       .  S
C1603      C1604   1.407       .  A
C1604      C1605   1.409       .  A
C1604      H1609   1.084       .  S
C1605      C1606   1.429       .  A
C1606      C1607   1.518       .  S
C1607      F1611   1.384       .  S
C1607      F1612   1.383       .  S
C1607      F1613   1.383       .  S
C1610      F1614   1.382       .  S
C1610      F1615   1.383       .  S
C1610      F1616   1.383       .  S
C1617      C1618   1.414       .  A
C1617      C1622   1.412       .  A
C1617      H1624   1.075       .  S
C1618      C1619   1.438       .  A
C1619      C1626   1.524       .  S
C1619      C1620   1.417       .  A
C1620      C1621   1.405       .  A
C1620      H1625   1.084       .  S
C1621      C1622   1.424       .  A
C1622      C1623   1.524       .  S
C1623      F1627   1.385       .  S
C1623      F1628   1.384       .  S
C1623      F1629   1.383       .  S
C1626      F1630   1.382       .  S
C1626      F1631   1.375       .  S
C1626      F1632   1.384       .  S
C1633      C1634   1.416       .  A
C1633      C1638   1.415       .  A
C1633      H1640   1.079   1_545  S
C1634      C1635   1.438       .  A
C1635      C1642   1.525       .  S
C1635      C1636   1.405       .  A
C1636      C1637   1.400       .  A
C1636      H1641   1.084       .  S
C1637      C1638   1.418       .  A
C1638      C1639   1.518   1_545  S
C1639      F1643   1.384       .  S
C1639      F1644   1.383       .  S
C1639      F1645   1.383       .  S
C1642      F1646   1.386       .  S
C1642      F1647   1.371       .  S
C1642      F1648   1.383       .  S
C1649      C1650   1.398       .  A
C1649      C1654   1.405       .  A
C1649      H1656   1.085       .  S
C1650      C1651   1.418       .  A
C1651      C1658   1.516   1_545  S
C1651      C1652   1.415       .  A
C1652      C1653   1.403       .  A
C1652      H1657   1.078   1_545  S
C1653      C1654   1.428       .  A
C1654      C1655   1.512       .  S
C1655      F1659   1.384       .  S
C1655      F1660   1.377       .  S
C1655      F1661   1.383       .  S
C1658      F1662   1.383   1_565  S
C1658      F1663   1.382       .  S
C1658      F1664   1.383       .  S
C1665      C1666   1.417       .  A
C1665      C1670   1.413       .  A
C1665      H1672   1.075       .  S
C1666      C1667   1.440       .  A
C1667      C1674   1.527       .  S
C1667      C1668   1.411       .  A
C1668      C1669   1.398       .  A
C1668      H1673   1.085       .  S
C1669      C1670   1.416       .  A
C1670      C1671   1.520       .  S
C1671      F1675   1.385       .  S
C1671      F1676   1.382       .  S
C1671      F1677   1.384       .  S
C1674      F1678   1.375       .  S
C1674      F1679   1.383       .  S
C1674      F1680   1.385       .  S
C1681      C1682   1.409       .  A
C1681      C1686   1.417       .  A
C1681      H1688   1.083       .  S
C1682      C1683   1.408       .  A
C1683      C1690   1.507       .  S
C1683      C1684   1.408       .  A
C1684      C1685   1.408       .  A
C1684      H1689   1.082       .  S
C1685      C1686   1.425       .  A
C1686      C1687   1.519       .  S
C1687      F1691   1.385       .  S
C1687      F1692   1.383       .  S
C1687      F1693   1.383       .  S
C1690      F1694   1.381       .  S
C1690      F1695   1.381       .  S
C1690      F1696   1.382       .  S
C1697      C1698   1.403       .  A
C1697      C1702   1.410       .  A
C1697      H1704   1.085       .  S
C1698      C1699   1.416       .  A
C1699      C1706   1.519       .  S
C1699      C1700   1.411       .  A
C1700      C1701   1.415       .  A
C1700      H1705   1.078       .  S
C1701      C1702   1.434       .  A
C1702      C1703   1.526       .  S
C1703      F1707   1.383       .  S
C1703      F1708   1.379       .  S
C1703      F1709   1.385       .  S
C1706      F1710   1.384       .  S
C1706      F1711   1.383       .  S
C1706      F1712   1.384       .  S
C1713      C1714   1.407       .  A
C1713      C1718   1.415       .  A
C1713      H1720   1.083       .  S
C1714      C1715   1.413       .  A
C1715      C1722   1.516       .  S
C1715      C1716   1.415       .  A
C1716      C1717   1.414       .  A
C1716      H1721   1.082       .  S
C1717      C1718   1.425       .  A
C1718      C1719   1.519       .  S
C1719      F1723   1.385   1_565  S
C1719      F1724   1.383       .  S
C1719      F1725   1.383       .  S
C1722      F1726   1.382   1_655  S
C1722      F1727   1.383       .  S
C1722      F1728   1.384       .  S
C1729      C1730   1.413       .  A
C1729      C1734   1.410       .  A
C1729      H1736   1.080       .  S
C1730      C1731   1.430   1_655  A
C1731      C1738   1.520       .  S
C1731      C1732   1.410   1_455  A
C1732      C1733   1.402       .  A
C1732      H1737   1.084       .  S
C1733      C1734   1.422       .  A
C1734      C1735   1.523       .  S
C1735      F1739   1.385       .  S
C1735      F1740   1.384       .  S
C1735      F1741   1.383       .  S
C1738      F1742   1.385       .  S
C1738      F1743   1.379       .  S
C1738      F1744   1.382       .  S
C1745      C1746   1.400       .  A
C1745      C1750   1.411       .  A
C1745      H1752   1.084       .  S
C1746      C1747   1.411   1_655  A
C1747      C1754   1.509       .  S
C1747      C1748   1.408       .  A
C1748      C1749   1.407   1_455  A
C1748      H1753   1.083       .  S
C1749      C1750   1.427       .  A
C1750      C1751   1.519       .  S
C1751      F1755   1.384       .  S
C1751      F1756   1.384       .  S
C1751      F1757   1.383       .  S
C1754      F1758   1.381       .  S
C1754      F1759   1.383       .  S
C1754      F1760   1.384       .  S
C1761      C1762   1.407       .  A
C1761      C1766   1.411       .  A
C1761      H1768   1.083       .  S
C1762      C1763   1.409       .  A
C1763      C1770   1.514       .  S
C1763      C1764   1.408       .  A
C1764      C1765   1.410       .  A
C1764      H1769   1.082       .  S
C1765      C1766   1.423       .  A
C1766      C1767   1.520       .  S
C1767      F1771   1.385       .  S
C1767      F1772   1.383       .  S
C1767      F1773   1.383       .  S
C1770      F1774   1.381       .  S
C1770      F1775   1.383       .  S
C1770      F1776   1.382       .  S
C1777      C1778   1.401       .  A
C1777      C1782   1.406       .  A
C1777      H1784   1.085       .  S
C1778      C1779   1.414       .  A
C1779      C1786   1.520       .  S
C1779      C1780   1.410       .  A
C1780      C1781   1.417       .  A
C1780      H1785   1.079       .  S
C1781      C1782   1.432       .  A
C1782      C1783   1.524       .  S
C1783      F1787   1.386       .  S
C1783      F1788   1.378       .  S
C1783      F1789   1.383       .  S
C1786      F1790   1.383       .  S
C1786      F1791   1.384       .  S
C1786      F1792   1.384       .  S
C1793      C1794   1.408       .  A
C1793      C1798   1.406   1_545  A
C1793      H1800   1.083   1_545  S
C1794      C1795   1.428       .  A
C1795      C1802   1.518       .  S
C1795      C1796   1.413       .  A
C1796      C1797   1.399       .  A
C1796      H1801   1.084       .  S
C1797      C1798   1.410   1_545  A
C1798      C1799   1.515       .  S
C1799      F1803   1.384       .  S
C1799      F1804   1.382       .  S
C1799      F1805   1.383       .  S
C1802      F1806   1.383       .  S
C1802      F1807   1.384       .  S
C1802      F1808   1.385       .  S
C1809      C1810   1.416       .  A
C1809      C1814   1.411       .  A
C1809      H1816   1.077       .  S
C1810      C1811   1.435       .  A
C1811      C1818   1.527       .  S
C1811      C1812   1.411       .  A
C1812      C1813   1.402       .  A
C1812      H1817   1.085       .  S
C1813      C1814   1.415       .  A
C1814      C1815   1.520       .  S
C1815      F1819   1.384       .  S
C1815      F1820   1.384       .  S
C1815      F1821   1.383       .  S
C1818      F1822   1.383       .  S
C1818      F1823   1.377   1_545  S
C1818      F1824   1.385       .  S
C1825      C1826   1.401       .  A
C1825      C1830   1.408       .  A
C1825      H1832   1.085       .  S
C1826      C1827   1.422   1_655  A
C1827      C1834   1.517       .  S
C1827      C1828   1.417       .  A
C1828      C1829   1.402   1_455  A
C1828      H1833   1.076       .  S
C1829      C1830   1.427       .  A
C1830      C1831   1.520       .  S
C1831      F1835   1.384       .  S
C1831      F1836   1.380       .  S
C1831      F1837   1.383       .  S
C1834      F1838   1.383       .  S
C1834      F1839   1.382       .  S
C1834      F1840   1.385       .  S
C1841      C1842   1.410   1_655  A
C1841      C1846   1.407       .  A
C1841      H1848   1.078       .  S
C1842      C1843   1.432       .  A
C1843      C1850   1.523       .  S
C1843      C1844   1.414       .  A
C1844      C1845   1.404   1_455  A
C1844      H1849   1.084       .  S
C1845      C1846   1.421       .  A
C1846      C1847   1.522       .  S
C1847      F1851   1.385       .  S
C1847      F1852   1.383       .  S
C1847      F1853   1.382       .  S
C1850      F1854   1.378       .  S
C1850      F1855   1.383       .  S
C1850      F1856   1.384       .  S
C1857      C1858   1.404       .  A
C1857      C1862   1.416       .  A
C1857      H1864   1.082       .  S
C1858      C1859   1.417       .  A
C1859      C1866   1.516       .  S
C1859      C1860   1.410       .  A
C1860      C1861   1.409       .  A
C1860      H1865   1.083       .  S
C1861      C1862   1.426       .  A
C1862      C1863   1.519       .  S
C1863      F1867   1.383   1_565  S
C1863      F1868   1.384       .  S
C1863      F1869   1.383       .  S
C1866      F1870   1.376       .  S
C1866      F1871   1.382       .  S
C1866      F1872   1.385       .  S
C1873      C1874   1.420       .  A
C1873      C1878   1.413       .  A
C1873      H1880   1.074       .  S
C1874      C1875   1.436       .  A
C1875      C1882   1.528       .  S
C1875      C1876   1.407       .  A
C1876      C1877   1.399       .  A
C1876      H1881   1.086       .  S
C1877      C1878   1.413       .  A
C1878      C1879   1.520       .  S
C1879      F1883   1.385       .  S
C1879      F1884   1.384       .  S
C1879      F1885   1.382       .  S
C1882      F1886   1.383       .  S
C1882      F1887   1.375       .  S
C1882      F1888   1.384       .  S
