geometry optimzed in LAMMPS
_audit_creation_date              2020-11-30 
_audit_creation_method            'lammps2cif' 
_symmetry_space_group_name_H-M    'P1' 
_symmetry_Int_Tables_number       1 
_symmetry_cell_setting            triclinic 
loop_ 
_symmetry_equiv_pos_as_xyz 
  x,y,z 
_cell_length_a                    89.88707802 
_cell_length_b                    90.03168658843502 
_cell_length_c                    37.44806962918355 
_cell_angle_alpha                 90.10342494674761 
_cell_angle_beta                  89.96714338999516 
_cell_angle_gamma                 121.74960381575042 
loop_ 
_atom_site_label 
_atom_site_type_symbol 
_atom_site_fract_x 
_atom_site_fract_y 
_atom_site_fract_z 
_atom_site_charge 
C1          C  0.65086629  0.17538971  0.55553836     0.86700
C2          C  0.66768318  0.19171034  0.54228013    -0.53600
C3          C  0.68278307  0.19390284  0.55581022     0.09600
C4          C  0.67968975  0.17970137  0.58314327     0.20600
C5          C  0.65346362  0.16002120  0.54906466    -0.54300
C6          C  0.66848465  0.16221332  0.56324262     0.09700
C7          C  0.65225316  0.17790841  0.59656560    -0.53800
C8          C  0.66708957  0.17971571  0.61114669     0.10300
H9          H  0.66766070  0.20069028  0.52296322     0.14800
H10         H  0.69190606  0.18152699  0.59472838     0.00500
H11         H  0.64433201  0.14852010  0.53371268     0.15100
H12         H  0.64275810  0.17846652  0.61333985     0.14900
C13         C  0.80224332  0.32923290  0.43967026     0.86700
C14         C  0.78587406  0.31221745  0.45127026    -0.53600
C15         C  0.78366567  0.29762321  0.43541651     0.09600
C16         C  0.79821144  0.30122982  0.40844136     0.20600
C17         C  0.81735042  0.32597365  0.44660395    -0.54300
C18         C  0.81517668  0.31132860  0.43028313     0.09700
C19         C  0.80134607  0.32949421  0.39866490    -0.53800
C20         C  0.79950044  0.31507129  0.38192772     0.10300
H21         H  0.77712972  0.31167107  0.47201171     0.14800
H22         H  0.79641306  0.28927163  0.39555384     0.00500
H23         H  0.82879068  0.33406263  0.46283694     0.15100
H24         H  0.80234437  0.34039874  0.38407599     0.14900
In25       In  0.74086071  0.08062772  0.46352942     1.36900
C26         C  0.77384118  0.10572340  0.47857812     0.77800
O27         O  0.74803705  0.07253809  0.41272527    -0.60700
O28         O  0.73522671  0.08653282  0.40890788    -0.51600
C29         C  0.72564111  0.04657767  0.47852538     0.70400
O30         O  0.74121765  0.05759386  0.48730950    -0.46400
C31         C  0.72261682  0.09273704  0.49530870     0.75100
O32         O  0.76564211  0.09171216  0.49619104    -0.58300
O33         O  0.71944398  0.08641161  0.46431417    -0.48400
O34         O  0.76526034  0.10639207  0.45266189    -0.54700
C35         C  0.74146615  0.07878007  0.39249321     0.85300
O36         O  0.71767178  0.05325041  0.46512335    -0.56600
O37         O  0.73487560  0.09242848  0.51086487    -0.59900
In38       In  0.90751519  0.25390212  0.55146922     1.36900
C39         C  0.88280363  0.22043066  0.53871589     0.77800
O40         O  0.91427678  0.24526875  0.60197222    -0.60700
O41         O  0.90388854  0.26160187  0.60592597    -0.51600
C42         C  0.94185896  0.27177881  0.53509658     0.70400
O43         O  0.93212262  0.25551142  0.53032254    -0.46400
C44         C  0.89228658  0.26925495  0.52028728     0.75100
O45         O  0.89691459  0.22847656  0.52122051    -0.58300
O46         O  0.89668810  0.27115999  0.55261155    -0.48400
O47         O  0.88158238  0.22961721  0.56253751    -0.54700
C48         C  0.90919811  0.25299943  0.62205759     0.85300
O49         O  0.93371003  0.27874638  0.54606819    -0.56600
O50         O  0.89673436  0.26016315  0.50285239    -0.59900
In51       In  0.37506339  0.09396175  0.54710350     1.36900
C52         C  0.36363016  0.11546371  0.53296975     0.77800
O53         O  0.36139299  0.08370198  0.59970607    -0.60700
O54         O  0.38839747  0.10319564  0.59999874    -0.51600
C55         C  0.35878309  0.05983611  0.53060206     0.70400
O56         O  0.35106866  0.06818371  0.53076561    -0.46400
C57         C  0.40545306  0.10938986  0.51268491     0.75100
O58         O  0.35865829  0.10162386  0.51545092    -0.58300
O59         O  0.40367256  0.10399554  0.54431917    -0.48400
O60         O  0.37411969  0.11793129  0.55782635    -0.54700
C61         C  0.37491410  0.09332736  0.61804976     0.85300
O62         O  0.37487955  0.06922104  0.53733168    -0.56600
O63         O  0.39150413  0.10644879  0.49809957    -0.59900
In64       In  0.35931921  0.24792309  0.44464012     1.36900
C65         C  0.35027923  0.21590197  0.46627498     0.77800
O66         O  0.34505540  0.23944991  0.39168008    -0.60700
O67         O  0.37094511  0.26127292  0.39313095    -0.51600
C68         C  0.34189298  0.26307878  0.46551283     0.70400
O69         O  0.33473713  0.24668722  0.46451726    -0.46400
C70         C  0.39296632  0.26405293  0.46380305     0.75100
O71         O  0.35188039  0.22748627  0.48771225    -0.58300
O72         O  0.38694554  0.25548706  0.43530605    -0.48400
O73         O  0.35206851  0.22043367  0.43401409    -0.54700
C74         C  0.35797963  0.25105872  0.37414785     0.85300
O75         O  0.35787932  0.27132045  0.45767758    -0.56600
O76         O  0.38152350  0.26420334  0.48311549    -0.59900
C77         C  0.55863933  0.18810743  0.42648278     0.86700
C78         C  0.56137562  0.20628900  0.43426357    -0.53600
C79         C  0.55040512  0.20972447  0.41614961     0.09600
C80         C  0.53739100  0.19473644  0.39190738     0.20600
C81         C  0.53913807  0.17567571  0.43545320    -0.54300
C82         C  0.52795122  0.17902264  0.41738998     0.09700
C83         C  0.55989502  0.18748256  0.38572295    -0.53800
C84         C  0.54880970  0.19080179  0.36762710     0.10300
H85         H  0.56958993  0.21515253  0.45510006     0.14800
H86         H  0.52856218  0.19781137  0.37740873     0.00500
H87         H  0.53464940  0.16566494  0.45589034     0.15100
H88         H  0.56899827  0.18487284  0.37226675     0.14900
C89         C  0.53505661  0.31573485  0.59020619     0.86700
C90         C  0.51765035  0.31161938  0.57362131    -0.53600
C91         C  0.51779230  0.31258415  0.53742724     0.09600
C92         C  0.53576484  0.31821299  0.52053691     0.20600
C93         C  0.53926631  0.30331515  0.57063303    -0.54300
C94         C  0.53974254  0.30445452  0.53400490     0.09700
C95         C  0.54805381  0.33402629  0.57603208    -0.53800
C96         C  0.54924189  0.33550235  0.53965123     0.10300
H97         H  0.50573974  0.30783984  0.58790125     0.14800
H98         H  0.53624028  0.31947424  0.49148051     0.00500
H99         H  0.54121286  0.29402044  0.58505464     0.15100
H100        H  0.55601962  0.34483901  0.59398295     0.14900
C101        C  0.67495149  0.44782344  0.36715683     0.86700
C102        C  0.67776246  0.46525190  0.38075961    -0.53600
C103        C  0.67669481  0.46639540  0.41705819     0.09600
C104        C  0.67304150  0.44973309  0.43677618     0.20600
C105        C  0.68885988  0.44613185  0.38819635    -0.54300
C106        C  0.68782243  0.44717594  0.42436190     0.09700
C107        C  0.65749938  0.43362407  0.38313825    -0.53800
C108        C  0.65633582  0.43465671  0.41916308     0.10300
H109        H  0.68086223  0.47602742  0.36297088     0.14800
H110        H  0.67242717  0.45039088  0.46630508     0.00500
H111        H  0.69933325  0.44511491  0.37679839     0.15100
H112        H  0.64690481  0.42347338  0.36720407     0.14900
In113      In  0.73993468  0.61966016  0.54115739     1.36900
C114        C  0.77156035  0.62501209  0.52840090     0.77800
O115        O  0.75292219  0.63696349  0.58879469    -0.60700
O116        O  0.72799984  0.61405314  0.59550180    -0.51600
C117        C  0.72560205  0.63707830  0.51536637     0.70400
O118        O  0.74160343  0.64245563  0.51142578    -0.46400
C119        C  0.72287194  0.58662488  0.51889262     0.75100
O120        O  0.76550067  0.63251501  0.51033559    -0.58300
O121        O  0.72427536  0.59089327  0.55127271    -0.48400
O122        O  0.76174814  0.61558018  0.55330089    -0.54700
C123        C  0.74072900  0.62723445  0.61001557     0.85300
O124        O  0.71705148  0.62245415  0.53057514    -0.56600
O125        O  0.72919239  0.59932313  0.49742375    -0.59900
In126      In  0.90712976  0.61948004  0.46926556     1.36900
C127        C  0.88233005  0.62667051  0.48022952     0.77800
O128        O  0.91118981  0.63433998  0.41843936    -0.60700
O129        O  0.90740138  0.60907351  0.41492123    -0.51600
C130        C  0.94119179  0.63890190  0.48630557     0.70400
O131        O  0.93082109  0.64415618  0.49105670    -0.46400
C132        C  0.89117978  0.58876951  0.50279470     0.75100
O133        O  0.89572321  0.63281650  0.49994431    -0.58300
O134        O  0.89502748  0.59043673  0.47013101    -0.48400
O135        O  0.88182712  0.61700123  0.45532983    -0.54700
C136        C  0.90991208  0.62241546  0.39847092     0.85300
O137        O  0.93386328  0.62348119  0.47476341    -0.56600
O138        O  0.89644784  0.60295324  0.51908698    -0.59900
C139        C  0.80119475  0.43068023  0.56158687     0.86700
C140        C  0.78379832  0.42846577  0.55002258    -0.53600
C141        C  0.78074275  0.44086941  0.56250334     0.09600
C142        C  0.79556011  0.45452832  0.58674958     0.20600
C143        C  0.81509914  0.44970029  0.55051252    -0.54300
C144        C  0.81191817  0.46201499  0.56325357     0.09700
C145        C  0.80146627  0.43182419  0.60246587    -0.53800
C146        C  0.79867849  0.44430476  0.61580138     0.10300
H147        H  0.77515046  0.41853367  0.53093983     0.14800
H148        H  0.79344903  0.46479292  0.59728012     0.00500
H149        H  0.82692215  0.45371486  0.53559916     0.15100
H150        H  0.80514257  0.42451965  0.61946133     0.14900
C151        C  0.66413804  0.18091187  0.93658654     0.86700
C152        C  0.66349256  0.18006630  0.89543258    -0.53600
C153        C  0.67812264  0.18194106  0.87949269     0.09600
C154        C  0.69219504  0.18437789  0.90677417     0.20600
C155        C  0.66795769  0.16697986  0.94790290    -0.54300
C156        C  0.68249734  0.16865084  0.93266598     0.09700
C157        C  0.68107715  0.19849477  0.94380235    -0.53800
C158        C  0.69602654  0.20046470  0.92930780     0.10300
H159        H  0.65290906  0.17915082  0.87973547     0.14800
H160        H  0.70380941  0.18566243  0.89371476     0.00500
H161        H  0.65993267  0.15672710  0.96692206     0.15100
H162        H  0.68117093  0.20849174  0.96014321     0.14900
C163        C  0.81084830  0.33808712  0.05909608     0.86700
C164        C  0.80774257  0.33531538  0.09959876    -0.53600
C165        C  0.80488080  0.31970556  0.11195471     0.09600
C166        C  0.80529049  0.30807044  0.08213135     0.20600
C167        C  0.82573423  0.33479309  0.05076177    -0.54300
C168        C  0.82315295  0.31939536  0.06370459     0.09700
C169        C  0.79489927  0.32193211  0.04207049    -0.53800
C170        C  0.79216152  0.30629682  0.05354926     0.10300
H171        H  0.80791778  0.34503250  0.11711785     0.14800
H172        H  0.80256807  0.29520524  0.09154361     0.00500
H173        H  0.83601408  0.34248187  0.03176645     0.15100
H174        H  0.78729158  0.32276633  0.02051309     0.14900
In175      In  0.73917106  0.07723464  0.05241793     1.36900
C176        C  0.77047866  0.10498035  0.03656034     0.77800
O177        O  0.73102832  0.08495304  0.00267831    -0.60700
O178        O  0.72074717  0.08692820  0.05238516    -0.51600
C179        C  0.72690633  0.04393918  0.03356288     0.70400
O180        O  0.74251925  0.05431755  0.04304384    -0.46400
C181        C  0.73817083  0.07432776  0.12332869     0.75100
O182        O  0.76516449  0.09005885  0.02330019    -0.58300
O183        O  0.72515577  0.07165230  0.10522345    -0.48400
O184        O  0.75995031  0.10529849  0.05824793    -0.54700
C185        C  0.72161852  0.08933431  0.01903509     0.85300
O186        O  0.71797572  0.05096751  0.03172571    -0.56600
O187        O  0.75159118  0.07850917  0.10512511    -0.59900
In188      In  0.90771754  0.25009470  0.96044978     1.36900
C189        C  0.88221245  0.21749981  0.97694103     0.82600
O190        O  0.89989443  0.25985985  0.00795578    -0.60700
O191        O  0.89561686  0.26614698  0.95598211    -0.51600
C192        C  0.94157684  0.26513759  0.97625901     0.70400
O193        O  0.93143553  0.24882507  0.97401073    -0.46400
C194        C  0.91111692  0.25094310  0.89000875     0.75100
O195        O  0.89560105  0.22631857  0.99620380    -0.58300
O196        O  0.90785066  0.26102426  0.90689532    -0.48400
O197        O  0.88213958  0.22543199  0.94934751    -0.54700
C198        C  0.89395552  0.26722277  0.98912912     0.85300
O199        O  0.93415835  0.27364470  0.97314631    -0.56600
O200        O  0.91277695  0.24049999  0.90946371    -0.59900
In201      In  0.36946312  0.25923990  0.03635039     1.36900
C202        C  0.36810346  0.22951981  0.02201023     0.77800
O203        O  0.38757913  0.26967224  0.98908431    -0.60700
O204        O  0.39788502  0.27975059  0.04046354    -0.51600
C205        C  0.34888203  0.27115426  0.01886552     0.70400
O206        O  0.34372592  0.25515950  0.01654646    -0.46400
C207        C  0.36356249  0.25623239  0.10600921     0.75100
O208        O  0.35966732  0.23450179  0.00370155    -0.58300
O209        O  0.37693896  0.26911162  0.09225938    -0.48400
O210        O  0.37656153  0.23954473  0.04753976    -0.54700
C211        C  0.40096189  0.27966507  0.00763983     0.85300
O212        O  0.36469844  0.28095771  0.02732234    -0.56600
O213        O  0.35292149  0.24510285  0.08398843    -0.59900
In214      In  0.37760281  0.09524364  0.95738735     1.36900
C215        C  0.37289286  0.12155102  0.97333295     0.77800
O216        O  0.39795437  0.10612239  0.00084806    -0.60700
O217        O  0.40541519  0.10280573  0.94928954    -0.51600
C218        C  0.35607756  0.06184171  0.97768295     0.70400
O219        O  0.35147987  0.06972544  0.95707843    -0.46400
C220        C  0.37497572  0.09186917  0.88670287     0.75100
O221        O  0.36469712  0.10700021  0.98915727    -0.58300
O222        O  0.38614837  0.09053755  0.90447457    -0.48400
O223        O  0.38347625  0.12243631  0.95017694    -0.54700
C224        C  0.41018480  0.10801534  0.98087805     0.85300
O225        O  0.37122930  0.07152099  0.99006627    -0.56600
O226        O  0.36519867  0.09486861  0.90543128    -0.59900
C227        C  0.56814385  0.19581224  0.04174090     0.86700
C228        C  0.56922926  0.19827114  0.08239156    -0.53600
C229        C  0.55708328  0.20122347  0.09711094     0.09600
C230        C  0.54541366  0.20267658  0.06829644     0.20600
C231        C  0.54895065  0.18174586  0.03418166    -0.54300
C232        C  0.53703952  0.18529922  0.04766062     0.09700
C233        C  0.57050415  0.21311654  0.02861913    -0.53800
C234        C  0.55815303  0.21648594  0.04065599     0.10300
H235        H  0.57883310  0.19764209  0.09874834     0.14800
H236        H  0.53544475  0.20501024  0.07935552     0.00500
H237        H  0.54512417  0.16997608  0.01897051     0.15100
H238        H  0.58125976  0.22198200  0.01157801     0.14900
C239        C  0.53659357  0.31706583  0.86311610     0.86700
C240        C  0.55186370  0.33428158  0.87762936    -0.53600
C241        C  0.55219171  0.33610455  0.91379150     0.09600
C242        C  0.53700372  0.32001095  0.93286337     0.20600
C243        C  0.53833761  0.30309820  0.88345650    -0.54300
C244        C  0.53843693  0.30459374  0.91970037     0.09700
C245        C  0.51999972  0.31538583  0.87881257    -0.53800
C246        C  0.51996347  0.31684266  0.91519603     0.10300
H247        H  0.56190434  0.34420122  0.86040728     0.14800
H248        H  0.53739732  0.32132265  0.96238784     0.00500
H249        H  0.53981637  0.29299488  0.87159509     0.15100
H250        H  0.50903102  0.31303553  0.86227757     0.14900
C251        C  0.67557526  0.44650513  0.09391221     0.86700
C252        C  0.65820478  0.43269354  0.07606620    -0.53600
C253        C  0.65838067  0.43331277  0.03966798     0.09600
C254        C  0.67561802  0.44832830  0.02404157     0.20600
C255        C  0.68962544  0.44434524  0.07551994    -0.54300
C256        C  0.68959555  0.44503515  0.03899179     0.09700
C257        C  0.67840740  0.46378802  0.07955603    -0.53800
C258        C  0.67903198  0.46504185  0.04326034     0.10300
H259        H  0.64651251  0.42308842  0.09008597     0.14800
H260        H  0.67551066  0.44909437  0.99447005     0.00500
H261        H  0.69925637  0.44310414  0.09050146     0.15100
H262        H  0.68069465  0.47456143  0.09661981     0.14900
In263      In  0.74618038  0.62318285  0.94749789     1.36900
C264        C  0.77800109  0.63507766  0.97448237     0.77800
O265        O  0.73309924  0.60056271  0.98625612    -0.60700
O266        O  0.73002867  0.59482207  0.93136259    -0.51600
C267        C  0.73369774  0.64325237  0.96540942     0.70400
O268        O  0.74980608  0.64920902  0.96156721    -0.46400
C269        C  0.74757716  0.62633217  0.87675256     0.75100
O270        O  0.76440394  0.62791200  0.99349250    -0.58300
O271        O  0.73895172  0.63057065  0.89623032    -0.48400
O272        O  0.77530103  0.63652242  0.94208867    -0.54700
C273        C  0.72692611  0.58883574  0.96259063     0.85300
O274        O  0.72414526  0.62684024  0.96334347    -0.56600
O275        O  0.75535377  0.62025074  0.89364703    -0.59900
In276      In  0.90998105  0.63054342  0.05845963     1.36900
C277        C  0.88872350  0.64159087  0.04015052     0.77800
O278        O  0.89620246  0.61208865  0.01259288    -0.60700
O279        O  0.90269946  0.60247543  0.05771861    -0.51600
C280        C  0.94412051  0.65026220  0.04311719     0.70400
O281        O  0.93456242  0.65648831  0.04753925    -0.46400
C282        C  0.90918605  0.62911293  0.12960784     0.75100
O283        O  0.89936690  0.64139672  0.01849059    -0.58300
O284        O  0.89798511  0.61688469  0.11012624    -0.48400
O285        O  0.88948346  0.63679324  0.07128244    -0.54700
C286        C  0.89553477  0.59920047  0.02741351     0.85300
O287        O  0.93592378  0.63382147  0.04435781    -0.56600
O288        O  0.92080601  0.64212103  0.11244521    -0.59900
C289        C  0.81530502  0.44344324  0.93923490     0.86700
C290        C  0.81803703  0.44525609  0.89844569    -0.53600
C291        C  0.81519259  0.45732361  0.88279868     0.09600
C292        C  0.81102924  0.46751642  0.91015777     0.20600
C293        C  0.82829522  0.46228039  0.95274085    -0.54300
C294        C  0.82583877  0.47474740  0.93809031     0.09700
C295        C  0.79723316  0.44094973  0.94547274    -0.53800
C296        C  0.79498909  0.45336384  0.93029142     0.10300
H297        H  0.82154419  0.43741318  0.88283137     0.14800
H298        H  0.80876412  0.47747070  0.89850712     0.00500
H299        H  0.83856962  0.46591763  0.97214493     0.15100
H300        H  0.78715434  0.43045902  0.96165707     0.14900
In301      In  0.10748817  0.35247643  0.96266893     1.36900
C302        C  0.13289586  0.34601233  0.97561878     0.77800
O303        O  0.10270980  0.33785785  0.91117063    -0.60700
O304        O  0.10847546  0.36391720  0.90902642    -0.51600
C305        C  0.07324431  0.33441120  0.97882727     0.70400
O306        O  0.08236142  0.32750257  0.97906812    -0.46400
C307        C  0.12228176  0.38319030  0.99520271     0.75100
O308        O  0.11909853  0.33939882  0.99428049    -0.58300
O309        O  0.11848501  0.38113759  0.96249892    -0.48400
O310        O  0.13320907  0.35546015  0.95055754    -0.54700
C311        C  0.10513623  0.35043276  0.89194129     0.85300
O312        O  0.08198993  0.35052201  0.97272736    -0.56600
O313        O  0.11804546  0.36936127  0.01200055    -0.59900
In314      In  0.27598703  0.35785124  0.05777765     1.36900
C315        C  0.24335908  0.34987939  0.04295608     0.77800
O316        O  0.26513433  0.34363318  0.10966862    -0.60700
O317        O  0.29030173  0.36652741  0.11005369    -0.51600
C318        C  0.29010887  0.33961935  0.03465266     0.70400
O319        O  0.27390341  0.33273493  0.03976652    -0.46400
C320        C  0.29156828  0.39048620  0.03340095     0.75100
O321        O  0.25170516  0.34560684  0.02250490    -0.58300
O322        O  0.28989197  0.38676554  0.06611560    -0.48400
O323        O  0.25159452  0.35755544  0.07089723    -0.54700
C324        C  0.27819939  0.35436212  0.12808671     0.85300
O325        O  0.29873826  0.35586954  0.03968270    -0.56600
O326        O  0.28616838  0.37753394  0.01278109    -0.59900
C327        C  0.20329277  0.54145752  0.05759858     0.86700
C328        C  0.22099050  0.54321507  0.05014378    -0.53600
C329        C  0.22282255  0.53045772  0.06495417     0.09600
C330        C  0.20694574  0.51716967  0.08702657     0.20600
C331        C  0.18922121  0.52272339  0.04672296    -0.54300
C332        C  0.19136476  0.51008175  0.06121224     0.09700
C333        C  0.20242122  0.54113371  0.09899092    -0.53800
C334        C  0.20401162  0.52820435  0.11438884     0.10300
H335        H  0.23093277  0.55325701  0.03298064     0.14800
H336        H  0.20854271  0.50681944  0.09905280     0.00500
H337        H  0.17843764  0.51982602  0.02910925     0.15100
H338        H  0.20128351  0.55038401  0.11539348     0.14900
C339        C  0.33477099  0.52898571  0.88645769     0.86700
C340        C  0.33373347  0.51216659  0.89809792    -0.53600
C341        C  0.33443769  0.51030660  0.93403767     0.09600
C342        C  0.33663995  0.52590614  0.95577617     0.20600
C343        C  0.32049637  0.52960761  0.90797462    -0.54300
C344        C  0.32111435  0.52762891  0.94413567     0.09700
C345        C  0.35187663  0.54366965  0.90378568    -0.53800
C346        C  0.35299152  0.54207495  0.93981641     0.10300
H347        H  0.33172549  0.50205889  0.87929777     0.14800
H348        H  0.33756011  0.52449037  0.98487737     0.00500
H349        H  0.31051497  0.53118644  0.89545509     0.15100
H350        H  0.36239512  0.55476826  0.88999456     0.14900
In351      In  0.10932261  0.72357901  0.05611100     1.36900
C352        C  0.13651744  0.75503460  0.03900921     0.77800
O353        O  0.10631382  0.73551552  0.10613349    -0.60700
O354        O  0.10921049  0.71369360  0.11111195    -0.51600
C355        C  0.07526254  0.71016885  0.04565741     0.70400
O356        O  0.08656085  0.72583929  0.03819051    -0.46400
C357        C  0.11989817  0.70477833  0.02107537     0.75100
O358        O  0.12181261  0.74855156  0.02385308    -0.58300
O359        O  0.12042502  0.70639290  0.05458852    -0.48400
O360        O  0.13692283  0.74557940  0.06322691    -0.54700
C361        C  0.10672058  0.72465062  0.12663678     0.85300
O362        O  0.08157349  0.70116164  0.05498104    -0.56600
O363        O  0.11303687  0.71214623  0.00548708    -0.59900
In364      In  0.27808311  0.89648386  0.96115130     1.36900
C365        C  0.24565039  0.86936325  0.97361131     0.77800
O366        O  0.26765550  0.90061283  0.91041267    -0.60700
O367        O  0.29009815  0.89854291  0.90775027    -0.51600
C368        C  0.29259289  0.93026071  0.97855701     0.70400
O369        O  0.27635659  0.91938940  0.98067446    -0.46400
C370        C  0.29434042  0.88234303  0.99174792     0.75100
O371        O  0.25332798  0.88238050  0.99437388    -0.58300
O372        O  0.29494866  0.88511457  0.95869092    -0.48400
O373        O  0.25443762  0.87070995  0.94629905    -0.54700
C374        C  0.27905090  0.90045712  0.89098757     0.85300
O375        O  0.30128767  0.92350378  0.96996935    -0.56600
O376        O  0.28625181  0.88777583  0.00968153    -0.59900
C377        C  0.36418635  0.79947758  0.05922076     0.86700
C378        C  0.34791475  0.78173658  0.04984653    -0.53600
C379        C  0.33260773  0.77890779  0.06365373     0.09600
C380        C  0.33495522  0.79409605  0.08691019     0.20600
C381        C  0.35972980  0.81317379  0.04874273    -0.54300
C382        C  0.34438330  0.81016456  0.06269587     0.09700
C383        C  0.36394666  0.79969124  0.10064379    -0.53800
C384        C  0.34865030  0.79686543  0.11511838     0.10300
H385        H  0.34841152  0.77240394  0.03225627     0.14800
H386        H  0.32263547  0.79220126  0.09799945     0.00500
H387        H  0.36797459  0.82436234  0.03192009     0.15100
H388        H  0.37448659  0.80163755  0.11782279     0.14900
C389        C  0.21128597  0.64679780  0.93622980     0.86700
C390        C  0.22778834  0.66302788  0.95128242    -0.53600
C391        C  0.23058489  0.67855116  0.93941776     0.09600
C392        C  0.21680784  0.67664035  0.91224718     0.20600
C393        C  0.19671269  0.65044590  0.94558887    -0.54300
C394        C  0.19932673  0.66595520  0.93264275     0.09700
C395        C  0.21332589  0.64876515  0.89567405    -0.53800
C396        C  0.21608918  0.66420775  0.88289429     0.10300
H397        H  0.23566129  0.66271944  0.97284346     0.14800
H398        H  0.21966920  0.68918055  0.90107614     0.00500
H399        H  0.18542560  0.64161562  0.96170123     0.15100
H400        H  0.21241203  0.63861738  0.87837080     0.14900
C401        C  0.45498010  0.78166583  0.93845383     0.86700
C402        C  0.45319977  0.76421336  0.94899702    -0.53600
C403        C  0.46529825  0.76147913  0.93360774     0.09600
C404        C  0.47833709  0.77647436  0.90897217     0.20600
C405        C  0.47405162  0.79532017  0.94853933    -0.54300
C406        C  0.48627078  0.79292877  0.93247124     0.09700
C407        C  0.45448226  0.78116911  0.89751254    -0.53800
C408        C  0.46679095  0.77874849  0.88169286     0.10300
H409        H  0.44431201  0.75517242  0.96883307     0.14800
H410        H  0.48852753  0.77459220  0.89698433     0.00500
H411        H  0.47751209  0.80582839  0.96739273     0.15100
H412        H  0.44539810  0.78316823  0.88227100     0.14900
In413      In  0.64278748  0.87791301  0.04544079     1.36900
C414        C  0.65078624  0.85436252  0.02494644     0.77800
O415        O  0.66008910  0.88624612  0.09394140    -0.60700
O416        O  0.63252553  0.87142226  0.10127471    -0.51600
C417        C  0.66007865  0.91244642  0.03360481     0.70400
O418        O  0.66601487  0.90308498  0.02403516    -0.46400
C419        C  0.61100658  0.86463180  0.01656040     0.75100
O420        O  0.65602567  0.86843200  0.00822402    -0.58300
O421        O  0.61399311  0.86653468  0.04956344    -0.48400
O422        O  0.64168045  0.85258083  0.05200566    -0.54700
C423        C  0.64744915  0.87924062  0.11559279     0.85300
O424        O  0.64506739  0.90391789  0.04728187    -0.56600
O425        O  0.62457888  0.86998226  0.99783862    -0.59900
In426      In  0.64806008  0.71747471  0.93080265     1.36900
C427        C  0.65597539  0.74957047  0.94950484     0.77800
O428        O  0.66355160  0.72891642  0.88043408    -0.60700
O429        O  0.63937253  0.70478575  0.87715343    -0.51600
C430        C  0.66595117  0.70269345  0.95066879     0.70400
O431        O  0.67252879  0.71901767  0.95148894    -0.46400
C432        C  0.61551302  0.70012009  0.95687928     0.75100
O433        O  0.65971591  0.74050318  0.96884146    -0.58300
O434        O  0.61906549  0.70503838  0.92486917    -0.48400
O435        O  0.64881514  0.74232314  0.92037946    -0.54700
C436        C  0.65249717  0.71669057  0.86073781     0.85300
O437        O  0.65019334  0.69423386  0.94102499    -0.56600
O438        O  0.62873531  0.70400258  0.97561387    -0.59900
C439        C  0.47734199  0.65480121  0.10978206     0.86700
C440        C  0.49467659  0.65713097  0.09638023    -0.53600
C441        C  0.49623694  0.65730605  0.06018145     0.09600
C442        C  0.47959093  0.65360404  0.04014082     0.20600
C443        C  0.47568285  0.66872979  0.08957755    -0.54300
C444        C  0.47670206  0.66809557  0.05328994     0.09700
C445        C  0.46355776  0.63726892  0.09316660    -0.53800
C446        C  0.46441296  0.63660209  0.05683451     0.10300
H447        H  0.50523039  0.65869811  0.11301259     0.14800
H448        H  0.48029649  0.65290811  0.01066400     0.00500
H449        H  0.47365877  0.67823362  0.10301965     0.15100
H450        H  0.45331165  0.62658112  0.10867188     0.14900
In451      In  0.64155671  0.71148483  0.52485907     1.36900
C452        C  0.64696836  0.74293930  0.51116393     0.77800
O453        O  0.62039495  0.70072899  0.48283854    -0.60700
O454        O  0.61287656  0.69671099  0.53733404    -0.51600
C455        C  0.66129429  0.69971067  0.49948021     0.70400
O456        O  0.66716752  0.71563490  0.50539850    -0.46400
C457        C  0.64737485  0.71008309  0.59356887     0.75100
O458        O  0.65029811  0.73469782  0.48845797    -0.58300
O459        O  0.63371818  0.69840984  0.57803324    -0.48400
O460        O  0.64198903  0.73550691  0.54093903    -0.54700
C461        C  0.60810436  0.69534657  0.50526046     0.85300
O462        O  0.64503717  0.68988909  0.50440387    -0.56600
O463        O  0.65834867  0.72223105  0.57369777    -0.59900
In464      In  0.64830924  0.88285642  0.45325750     1.36900
C465        C  0.65200297  0.85565233  0.46321601     0.77800
O466        O  0.63160866  0.87273970  0.50264293    -0.60700
O467        O  0.61980033  0.87356636  0.45418496    -0.51600
C468        C  0.66785968  0.91621120  0.47390529     0.70400
O469        O  0.67294982  0.90563704  0.47749124    -0.46400
C470        C  0.65291890  0.88701039  0.38298046     0.75100
O471        O  0.66097493  0.86986136  0.48010129    -0.58300
O472        O  0.63899403  0.88358938  0.39842345    -0.48400
O473        O  0.64153323  0.85573912  0.44095849    -0.54700
C474        C  0.61784142  0.86955894  0.48681721     0.85300
O475        O  0.65256041  0.90940292  0.46187342    -0.56600
O476        O  0.66468022  0.88861974  0.40385303    -0.59900
C477        C  0.46861447  0.65764004  0.38143848     0.86700
C478        C  0.45289482  0.64178646  0.39902724    -0.53600
C479        C  0.45370520  0.64156125  0.43540705     0.09600
C480        C  0.47048005  0.65724854  0.45126172     0.20600
C481        C  0.46914599  0.67324616  0.40033659    -0.54300
C482        C  0.47059281  0.67327395  0.43675651     0.09700
C483        C  0.48487315  0.65814773  0.39571365    -0.53800
C484        C  0.48579216  0.65765393  0.43196784     0.10300
H485        H  0.44184471  0.63170259  0.38391824     0.14800
H486        H  0.47133228  0.65695347  0.48080351     0.00500
H487        H  0.46796219  0.68326872  0.38732752     0.15100
H488        H  0.49512368  0.65929530  0.37836734     0.14900
C489        C  0.46296672  0.79386433  0.55409479     0.86700
C490        C  0.46160695  0.79421273  0.59523434    -0.53600
C491        C  0.47159651  0.78927093  0.61305209     0.09600
C492        C  0.48235046  0.78480236  0.58838901     0.20600
C493        C  0.48252520  0.80540550  0.54607000    -0.54300
C494        C  0.49263287  0.80071438  0.56383845     0.09700
C495        C  0.45826136  0.77500628  0.54669827    -0.53800
C496        C  0.46855254  0.77028458  0.56403770     0.10300
H497        H  0.45297232  0.79725143  0.60929776     0.14800
H498        H  0.49070556  0.78114596  0.60299573     0.00500
H499        H  0.48791369  0.81617289  0.52722168     0.15100
H500        H  0.44805161  0.76631594  0.52830380     0.14900
C501        C  0.21119339  0.64579550  0.55953984     0.86700
C502        C  0.21238812  0.64708363  0.60035221    -0.53600
C503        C  0.21642907  0.66289633  0.61388121     0.09600
C504        C  0.21885738  0.67616278  0.58495185     0.20600
C505        C  0.19814245  0.65115327  0.54889592    -0.54300
C506        C  0.20197115  0.66678000  0.56274268     0.09700
C507        C  0.22873289  0.66142856  0.54609578    -0.53800
C508        C  0.23294650  0.67726456  0.55974889     0.10300
H509        H  0.21012481  0.63627434  0.61719829     0.14800
H510        H  0.22167428  0.68891117  0.59546845     0.00500
H511        H  0.18709551  0.64359079  0.53117123     0.15100
H512        H  0.23667281  0.66039263  0.52558184     0.14900
C513        C  0.36666924  0.80238111  0.43779861     0.86700
C514        C  0.36530936  0.80121310  0.39673416    -0.53600
C515        C  0.34922096  0.79670681  0.38372607     0.09600
C516        C  0.33592101  0.79403122  0.41305319     0.20600
C517        C  0.36119038  0.81540491  0.44759889    -0.54300
C518        C  0.34515844  0.81110192  0.43490581     0.09700
C519        C  0.35153234  0.78436900  0.44960984    -0.53800
C520        C  0.33539898  0.78018041  0.43821959     0.10300
H521        H  0.37571213  0.80320468  0.37896192     0.14800
H522        H  0.32297973  0.79063069  0.40241174     0.00500
H523        H  0.36933215  0.82705488  0.46349505     0.15100
H524        H  0.35329359  0.77589766  0.46740849     0.14900
In525      In  0.27905110  0.89503347  0.55179306     1.36900
C526        C  0.24665816  0.86806590  0.53822662     0.77800
O527        O  0.28667605  0.88592784  0.50283657    -0.60700
O528        O  0.30017640  0.88899934  0.55114004    -0.51600
C529        C  0.29289759  0.92848317  0.53320518     0.70400
O530        O  0.27662465  0.91765480  0.53398719    -0.46400
C531        C  0.27942565  0.89799579  0.62273502     0.75100
O532        O  0.25319007  0.88252906  0.52233081    -0.58300
O533        O  0.28640783  0.89092296  0.60656087    -0.48400
O534        O  0.25668011  0.86757548  0.56100750    -0.54700
C535        C  0.29813382  0.88434258  0.51888633     0.85300
O536        O  0.30203244  0.92195852  0.53963710    -0.56600
O537        O  0.27208750  0.90339146  0.60250737    -0.59900
In538      In  0.10660475  0.72435890  0.46435986     1.36900
C539        C  0.13276661  0.75704069  0.47826888     0.77800
O540        O  0.11791312  0.71717425  0.50971707    -0.60700
O541        O  0.11983559  0.70932839  0.45723053    -0.51600
C542        C  0.07315990  0.70896182  0.48602700     0.70400
O543        O  0.08242211  0.72497130  0.47844010    -0.46400
C544        C  0.10146351  0.72294949  0.39445957     0.75100
O545        O  0.11992378  0.74868609  0.49922938    -0.58300
O546        O  0.10236183  0.71126772  0.41110362    -0.48400
O547        O  0.13165461  0.74876884  0.45031078    -0.54700
C548        C  0.12397438  0.71030272  0.48969959     0.85300
O549        O  0.08138132  0.70118437  0.48461408    -0.56600
O550        O  0.10296896  0.73515595  0.41376798    -0.59900
In551      In  0.10794557  0.35448410  0.55226485     1.36900
C552        C  0.13253413  0.34710054  0.53727199     0.77800
O553        O  0.11964268  0.37261496  0.50496477    -0.60700
O554        O  0.11777251  0.38302095  0.55423682    -0.51600
C555        C  0.07378067  0.33576372  0.53525660     0.70400
O556        O  0.08328400  0.32930900  0.53595951    -0.46400
C557        C  0.10529957  0.35211408  0.62314915     0.75100
O558        O  0.11986383  0.34302480  0.51653598    -0.58300
O559        O  0.11351653  0.36650701  0.60688752    -0.48400
O560        O  0.13206279  0.35409905  0.56600066    -0.54700
C561        C  0.12285925  0.38604145  0.52226617     0.85300
O562        O  0.08202720  0.35201188  0.54051721    -0.56600
O563        O  0.09851103  0.33889682  0.60301630    -0.59900
In564      In  0.27397375  0.35329944  0.46919943     1.36900
C565        C  0.24216860  0.34582985  0.48992812     0.77800
O566        O  0.28486268  0.37502484  0.51000077    -0.60700
O567        O  0.29604247  0.38095424  0.45865865    -0.51600
C568        C  0.28324586  0.33086341  0.49016889     0.70400
O569        O  0.26765823  0.32634156  0.48367593    -0.46400
C570        C  0.27501884  0.35280134  0.39777472     0.75100
O571        O  0.25436983  0.34955579  0.51158218    -0.58300
O572        O  0.27170103  0.36269545  0.41527833    -0.48400
O573        O  0.24574532  0.34445465  0.45804354    -0.54700
C574        C  0.29551089  0.38672059  0.48893871     0.85300
O575        O  0.29393822  0.34713870  0.48870571    -0.56600
O576        O  0.27749905  0.34283522  0.41710159    -0.59900
C577        C  0.33251901  0.52444583  0.61266902     0.86700
C578        C  0.35020226  0.53928692  0.59858313    -0.53600
C579        C  0.35190824  0.53988761  0.56230732     0.09600
C580        C  0.33555895  0.52529372  0.54283101     0.20600
C581        C  0.31857444  0.52618206  0.59267554    -0.54300
C582        C  0.32038754  0.52713561  0.55642844     0.09700
C583        C  0.33056703  0.50775256  0.59601827    -0.53800
C584        C  0.33209409  0.50810267  0.55967552     0.10300
H585        H  0.36043601  0.54886011  0.61604244     0.14800
H586        H  0.33680886  0.52570220  0.51329345     0.00500
H587        H  0.30821237  0.52681981  0.60613134     0.15100
H588        H  0.32756604  0.49612077  0.61051305     0.14900
C589        C  0.20152277  0.54079849  0.43626637     0.86700
C590        C  0.20033450  0.53827627  0.39551487    -0.53600
C591        C  0.20573125  0.52757682  0.38313463     0.09600
C592        C  0.21090361  0.51938796  0.41311639     0.20600
C593        C  0.18995739  0.52184213  0.44993291    -0.54300
C594        C  0.19495617  0.51075202  0.43814144     0.09700
C595        C  0.22027962  0.54615303  0.44605169    -0.53800
C596        C  0.22527544  0.53501672  0.43458824     0.10300
H597        H  0.19516178  0.54384375  0.37756170     0.14800
H598        H  0.21472687  0.51019965  0.40360710     0.00500
H599        H  0.17833717  0.51718845  0.46618410     0.15100
H600        H  0.22874100  0.55768538  0.46201160     0.14900
C601        C  0.30064575  0.54522911  0.49282544    -0.22300
C602        C  0.28289385  0.53205088  0.49456497     0.09700
C603        C  0.27768511  0.51683597  0.51465179     0.10100
C604        C  0.29025307  0.51554524  0.53418130    -0.17200
C605        C  0.30800568  0.52882966  0.53309278    -0.27600
C606        C  0.31332010  0.54376155  0.51179661     0.18400
C607        C  0.26966891  0.53491005  0.47787865     0.12400
C608        C  0.25883044  0.50201790  0.51559026    -0.12000
H609        H  0.28622848  0.50409920  0.55049274     0.12700
C610        C  0.33213743  0.55852498  0.51048961    -0.22800
H611        H  0.30449442  0.55689773  0.47742858     0.08300
C612        C  0.26070457  0.54087271  0.49844554     0.04700
C613        C  0.24667414  0.54123507  0.48323062    -0.20000
C614        C  0.24177429  0.53649646  0.44731655    -0.12300
C615        C  0.25192949  0.53209534  0.42587832     0.13400
C616        C  0.26540953  0.53084653  0.44175122    -0.22800
C617        C  0.26585355  0.54669180  0.53662019    -0.05800
H618        H  0.23913321  0.54468324  0.50005311     0.14900
C619        C  0.24946454  0.52930160  0.38614125    -0.16000
H620        H  0.27271732  0.52676584  0.42579780     0.09200
H621        H  0.33674472  0.56361630  0.53786699     0.07100
H622        H  0.33387649  0.56948710  0.49370122     0.08300
H623        H  0.34033318  0.55387077  0.49894746     0.07300
H624        H  0.25433324  0.49705708  0.48808115     0.02200
H625        H  0.25046176  0.50654204  0.52683329     0.02700
H626        H  0.25705662  0.49099661  0.53221904     0.06200
H627        H  0.25760055  0.55117124  0.54876197     0.05200
H628        H  0.27967974  0.55772314  0.53756418    -0.00600
H629        H  0.26446534  0.53579056  0.55303711     0.00900
H630        H  0.26221179  0.53766714  0.37251084     0.04500
H631        H  0.24044483  0.53299290  0.37512254     0.06500
H632        H  0.24451519  0.51541800  0.37968013     0.07300
C633        C  0.32528143  0.43657401  0.48449456    -0.22300
C634        C  0.31905293  0.44141454  0.51378831     0.09700
C635        C  0.30650578  0.42838311  0.53662300     0.10100
C636        C  0.29992089  0.41073973  0.52885905    -0.17200
C637        C  0.30529640  0.40566452  0.49834233    -0.27600
C638        C  0.31855423  0.41885712  0.47634532     0.18400
C639        C  0.32476950  0.46002591  0.51919920     0.12400
C640        C  0.29974409  0.43310948  0.56881337    -0.12000
H641        H  0.28989434  0.40083702  0.54599622     0.12700
C642        C  0.32561337  0.41452196  0.44409931    -0.22800
H643        H  0.33504150  0.44670510  0.46731779     0.08300
C644        C  0.33971323  0.47148262  0.53945594     0.04700
C645        C  0.34246591  0.48775190  0.54992030    -0.20000
C646        C  0.33075181  0.49295648  0.54014747    -0.12300
C647        C  0.31662545  0.48198752  0.51707596     0.13400
C648        C  0.31380760  0.46565952  0.50713434    -0.22800
C649        C  0.35233413  0.46623874  0.55109139    -0.05800
H650        H  0.35339973  0.49615547  0.56724683     0.14900
C651        C  0.30365485  0.48640139  0.50375626    -0.16000
H652        H  0.30244397  0.45686476  0.49114308     0.09200
H653        H  0.33061154  0.40605804  0.45207817     0.07100
H654        H  0.33657124  0.42644797  0.43150036     0.08300
H655        H  0.31520531  0.40779892  0.42365044     0.07300
H656        H  0.29321487  0.44009966  0.56028779     0.02200
H657        H  0.31078363  0.44166600  0.58692550     0.02700
H658        H  0.29009226  0.42136117  0.58406775     0.06200
H659        H  0.36332394  0.47669705  0.56692492     0.05200
H660        H  0.35789608  0.46355603  0.52722195    -0.00600
H661        H  0.34545545  0.45429487  0.56779544     0.00900
H662        H  0.30322458  0.48584210  0.47412618     0.04500
H663        H  0.30706983  0.49956236  0.51153552     0.06500
H664        H  0.29044436  0.47686104  0.51437101     0.07300
C665        C  0.14192482  0.43473792  0.50715489    -0.22300
C666        C  0.15325235  0.43801561  0.47851015     0.09700
C667        C  0.15408761  0.42413516  0.46330198     0.10100
C668        C  0.14358812  0.40721638  0.47738256    -0.17200
C669        C  0.13250875  0.40392317  0.50680038    -0.27600
C670        C  0.13158036  0.41793189  0.52162900     0.18400
C671        C  0.16423820  0.45623660  0.46552319     0.12400
C672        C  0.16609175  0.42722202  0.43236768    -0.12000
H673        H  0.14441614  0.39660453  0.46594611     0.12700
C674        C  0.11963915  0.41539083  0.55239832    -0.22800
H675        H  0.14136181  0.44551735  0.51852700     0.08300
C676        C  0.15713785  0.46390191  0.44414672     0.04700
C677        C  0.16754484  0.48166256  0.43530206    -0.20000
C678        C  0.18494525  0.49187568  0.44697331    -0.12300
C679        C  0.19210273  0.48417782  0.46818840     0.13400
C680        C  0.18164071  0.46640304  0.47718119    -0.22800
C681        C  0.13856937  0.45334015  0.43080349    -0.05800
H682        H  0.16204225  0.48767614  0.41942761     0.14900
C683        C  0.21044310  0.49481164  0.48270838    -0.16000
H684        H  0.18690028  0.46047565  0.49406964     0.09200
H685        H  0.10596349  0.40515543  0.54557349     0.07100
H686        H  0.11985868  0.42755768  0.55879731     0.08300
H687        H  0.12386567  0.41159560  0.57675140     0.07300
H688        H  0.17986509  0.43654309  0.44034336     0.02200
H689        H  0.16269602  0.43273311  0.40951765     0.02700
H690        H  0.16503673  0.41493660  0.42338434     0.06200
H691        H  0.13518764  0.46127957  0.41391755     0.05200
H692        H  0.12936951  0.44826783  0.45371207    -0.00600
H693        H  0.13679874  0.44219393  0.41454527     0.00900
H694        H  0.21360900  0.48693687  0.50033919     0.04500
H695        H  0.21196182  0.50597018  0.49854750     0.06500
H696        H  0.21996380  0.49977192  0.46040715     0.07300
C697        C  0.20804409  0.35393018  0.53039214    -0.22300
C698        C  0.19267390  0.34062182  0.51430599     0.09700
C699        C  0.19350496  0.32852748  0.49166461     0.10100
C700        C  0.20977974  0.33028694  0.48499851    -0.17200
C701        C  0.22528841  0.34386791  0.50045250    -0.27600
C702        C  0.22436021  0.35591339  0.52347936     0.18400
C703        C  0.17622450  0.34059949  0.51946366     0.12400
C704        C  0.17721455  0.31376740  0.47462615    -0.12000
H705        H  0.21043408  0.32110932  0.46729730     0.12700
C706        C  0.24020362  0.37174309  0.53947853    -0.22800
H707        H  0.20740604  0.36336961  0.54731952     0.08300
C708        C  0.16712252  0.33583712  0.55224160     0.04700
C709        C  0.15264479  0.33769175  0.55672819    -0.20000
C710        C  0.14697055  0.34417531  0.52923495    -0.12300
C711        C  0.15608375  0.34886651  0.49623654     0.13400
C712        C  0.17044648  0.34682493  0.49177476    -0.22800
C713        C  0.17266246  0.32877030  0.58243810    -0.05800
H714        H  0.14578159  0.33420383  0.58206732     0.14900
C715        C  0.15193973  0.35709395  0.46585481    -0.16000
H716        H  0.17766448  0.35079256  0.46685255     0.09200
H717        H  0.23962327  0.37063784  0.56903554     0.07100
H718        H  0.24021037  0.38366790  0.53189261     0.08300
H719        H  0.25282410  0.37377250  0.53037565     0.07300
H720        H  0.17121881  0.31904236  0.45682799     0.02200
H721        H  0.16767936  0.30564520  0.49568808     0.02700
H722        H  0.18007606  0.30523005  0.45837583     0.06200
H723        H  0.16388250  0.32529450  0.60591462     0.05200
H724        H  0.18613187  0.33869293  0.59112573    -0.00600
H725        H  0.17232427  0.31683547  0.57346240     0.00900
H726        H  0.16378526  0.36989061  0.45915314     0.04500
H727        H  0.14143168  0.35961427  0.47190388     0.06500
H728        H  0.14802104  0.34848144  0.44201656     0.07300
C729        C  0.19865546  0.83866443  0.51081441    -0.22300
C730        C  0.19622422  0.82208653  0.51560474     0.09700
C731        C  0.21025100  0.82068807  0.52805969     0.10100
C732        C  0.22637253  0.83592605  0.53572589    -0.17200
C733        C  0.22901417  0.85261013  0.53044041    -0.27600
C734        C  0.21487822  0.85397312  0.51806013     0.18400
C735        C  0.17914761  0.80631448  0.50598811     0.12400
C736        C  0.20834290  0.80311905  0.53241470    -0.12000
H737        H  0.23713405  0.83478461  0.54511475     0.12700
C738        C  0.21660556  0.87142580  0.51331657    -0.22800
H739        H  0.18780430  0.83959685  0.50118294     0.08300
C740        C  0.16618542  0.79657169  0.53182046     0.04700
C741        C  0.15096871  0.78081782  0.52182790    -0.20000
C742        C  0.14826508  0.77467786  0.48641026    -0.12300
C743        C  0.16087876  0.78516868  0.46009163     0.13400
C744        C  0.17617227  0.80075516  0.47037814    -0.22800
C745        C  0.16840163  0.80287085  0.56985581    -0.05800
H746        H  0.14131484  0.77309228  0.54201166     0.14900
C747        C  0.15841466  0.78028001  0.42104225    -0.16000
H748        H  0.18607050  0.80854301  0.45062058     0.09200
H749        H  0.20401189  0.86997333  0.50526422     0.07100
H750        H  0.22632683  0.87900106  0.49215425     0.08300
H751        H  0.22079728  0.87881666  0.53885069     0.07300
H752        H  0.20491240  0.79619568  0.50634575     0.02200
H753        H  0.19788710  0.79509705  0.55200185     0.02700
H754        H  0.22064237  0.80437819  0.54205216     0.06200
H755        H  0.15697771  0.79380503  0.58661170     0.05200
H756        H  0.16978964  0.81587432  0.57046824    -0.00600
H757        H  0.18024215  0.80400615  0.58181436     0.00900
H758        H  0.16898548  0.79065382  0.40433502     0.04500
H759        H  0.14579631  0.77830527  0.41150213     0.06500
H760        H  0.15865838  0.76821020  0.41683796     0.07300
C761        C  0.32797441  0.86656101  0.50320063    -0.22300
C762        C  0.32130279  0.85767888  0.47086830     0.09700
C763        C  0.30840679  0.85908840  0.45261769     0.10100
C764        C  0.30172819  0.86860519  0.46816838    -0.17200
C765        C  0.30757520  0.87668509  0.50175238    -0.27600
C766        C  0.32137947  0.87612290  0.51890535     0.18400
C767        C  0.32693043  0.84574484  0.45847866     0.12400
C768        C  0.30153148  0.85030810  0.41701419    -0.12000
H769        H  0.29141386  0.86917100  0.45451331     0.12700
C770        C  0.32922074  0.88532401  0.55381218    -0.22800
H771        H  0.33803368  0.86550819  0.51677865     0.08300
C772        C  0.34277183  0.85184546  0.43999637     0.04700
C773        C  0.34803112  0.84007615  0.43142906    -0.20000
C774        C  0.33791618  0.82240169  0.44140480    -0.12300
C775        C  0.32197791  0.81634460  0.45982910     0.13400
C776        C  0.31662750  0.82807874  0.46778884    -0.22800
C777        C  0.35418411  0.87078527  0.42983294    -0.05800
H778        H  0.36028877  0.84474862  0.41750543     0.14900
C779        C  0.31113789  0.79792610  0.47346148    -0.16000
H780        H  0.30459842  0.82360427  0.48248149     0.09200
H781        H  0.34049788  0.88422924  0.56188636     0.07100
H782        H  0.31934411  0.87942962  0.57544501     0.08300
H783        H  0.33402000  0.89943467  0.55121600     0.07300
H784        H  0.29536873  0.83597159  0.41983019     0.02200
H785        H  0.31246871  0.85530708  0.39759035     0.02700
H786        H  0.29158675  0.85284355  0.40610386     0.06200
H787        H  0.36608551  0.87337798  0.41526308     0.05200
H788        H  0.35840286  0.87904728  0.45422335    -0.00600
H789        H  0.34676149  0.87457698  0.41232884     0.00900
H790        H  0.29962674  0.79578036  0.48894906     0.04500
H791        H  0.31924461  0.79526645  0.49146646     0.06500
H792        H  0.30612972  0.78855090  0.45092052     0.07300
C793        C  0.20329914  0.58401796  0.45587471    -0.22300
C794        C  0.19751446  0.58140650  0.49121338     0.09700
C795        C  0.19109255  0.56497922  0.50705351     0.10100
C796        C  0.19108286  0.55168145  0.48732461    -0.17200
C797        C  0.19755901  0.55424959  0.45188959    -0.27600
C798        C  0.20423316  0.57115742  0.43654304     0.18400
C799        C  0.20077551  0.59688553  0.51212311     0.12400
C800        C  0.18531749  0.56179036  0.54555004    -0.12000
H801        H  0.18724466  0.53969624  0.50123110     0.12700
C802        C  0.21362988  0.57672430  0.40110527    -0.22800
H803        H  0.20831764  0.59680937  0.44416253     0.08300
C804        C  0.21800720  0.61038832  0.52035489     0.04700
C805        C  0.22082775  0.62558238  0.53703672    -0.20000
C806        C  0.20689350  0.62784267  0.54587567    -0.12300
C807        C  0.18956357  0.61298655  0.54295175     0.13400
C808        C  0.18673030  0.59815522  0.52419527    -0.22800
C809        C  0.23350273  0.60872058  0.51207252    -0.05800
H810        H  0.23413878  0.63570428  0.54332649     0.14900
C811        C  0.17384898  0.61166244  0.56074584    -0.16000
H812        H  0.17347302  0.58733825  0.51970880     0.09200
H813        H  0.22063368  0.59110798  0.39747498     0.07100
H814        H  0.20413552  0.57104449  0.37884157     0.08300
H815        H  0.22368656  0.57315922  0.39925458     0.07300
H816        H  0.17395632  0.56333451  0.54921726     0.02200
H817        H  0.19622259  0.57124927  0.56299792     0.02700
H818        H  0.18130598  0.54840554  0.55429909     0.06200
H819        H  0.24593512  0.62010829  0.52207551     0.05200
H820        H  0.23487951  0.60791274  0.48283009    -0.00600
H821        H  0.23173382  0.59679791  0.52497264     0.00900
H822        H  0.16479865  0.61137706  0.54020877     0.04500
H823        H  0.17732210  0.62233328  0.58002088     0.06500
H824        H  0.16682528  0.59937731  0.57642964     0.07300
C825        C  0.16577860  0.67643616  0.56511607    -0.22300
C826        C  0.16944725  0.68646102  0.53407254     0.09700
C827        C  0.18450835  0.69100483  0.51380113     0.10100
C828        C  0.19511907  0.68462489  0.52409038    -0.17200
C829        C  0.19123663  0.67429956  0.55468762    -0.27600
C830        C  0.17663157  0.67038873  0.57582375     0.18400
C831        C  0.15736329  0.69211713  0.52331986     0.12400
C832        C  0.18937706  0.70259594  0.48147043    -0.12000
H833        H  0.20633148  0.68747637  0.50794861     0.12700
C834        C  0.17250724  0.65977570  0.60945342    -0.22800
H835        H  0.15433465  0.67325617  0.58080037     0.08300
C836        C  0.14363466  0.68234042  0.49891080     0.04700
C837        C  0.13282395  0.68853518  0.48880003    -0.20000
C838        C  0.13540711  0.70423736  0.50266120    -0.12300
C839        C  0.14939701  0.71413667  0.52685703     0.13400
C840        C  0.15995785  0.70772102  0.53732287    -0.22800
C841        C  0.14039012  0.66537481  0.48369463    -0.05800
H842        H  0.12227144  0.68106903  0.46999401     0.14900
C843        C  0.15441573  0.73194718  0.54069569    -0.16000
H844        H  0.17069757  0.71524683  0.55572086     0.09200
H845        H  0.16059878  0.65788555  0.62282776     0.07100
H846        H  0.18362569  0.66659105  0.62839789     0.08300
H847        H  0.17029920  0.64671561  0.60307851     0.07300
H848        H  0.19137786  0.71541520  0.48938945     0.02200
H849        H  0.17880603  0.69645357  0.46121527     0.02700
H850        H  0.20165394  0.70497627  0.46895549     0.06200
H851        H  0.12906534  0.65933981  0.46509984     0.05200
H852        H  0.13761681  0.65600632  0.50568145    -0.00600
H853        H  0.15207377  0.66764523  0.46876721     0.00900
H854        H  0.15265455  0.73137377  0.57011087     0.04500
H855        H  0.14692958  0.73723392  0.52868537     0.06500
H856        H  0.16839721  0.74144364  0.53449536     0.07300
C857        C  0.29042263  0.73921840  0.45564473    -0.22300
C858        C  0.29060512  0.73848009  0.49310554     0.09700
C859        C  0.30518066  0.75155886  0.51207599     0.10100
C860        C  0.31933074  0.76491487  0.49317548    -0.17200
C861        C  0.31942635  0.76563989  0.45559599    -0.27600
C862        C  0.30473120  0.75255813  0.43655848     0.18400
C863        C  0.27591814  0.72338885  0.51196740     0.12400
C864        C  0.30578197  0.75151923  0.55231094    -0.12000
H865        H  0.33043832  0.77499581  0.50798468     0.12700
C866        C  0.30399632  0.75166939  0.39639281    -0.22800
H867        H  0.27925572  0.72899814  0.44115853     0.08300
C868        C  0.25974343  0.72205596  0.51764638     0.04700
C869        C  0.24622976  0.70730419  0.53522157    -0.20000
C870        C  0.24853194  0.69385848  0.54718405    -0.12300
C871        C  0.26518895  0.69584129  0.54349289     0.13400
C872        C  0.27849896  0.71037622  0.52525550    -0.22800
C873        C  0.25676855  0.73616873  0.50508389    -0.05800
H874        H  0.23364811  0.70603529  0.53857570     0.14900
C875        C  0.26962584  0.68323674  0.55928433    -0.16000
H876        H  0.29111683  0.71169219  0.52171725     0.09200
H877        H  0.29315773  0.75314423  0.38680658     0.07100
H878        H  0.30154806  0.73879530  0.38749725     0.08300
H879        H  0.31629456  0.76179534  0.38359422     0.07300
H880        H  0.30521011  0.73957419  0.56188373     0.02200
H881        H  0.29450920  0.75188174  0.56334098     0.02700
H882        H  0.31798991  0.76299697  0.56287420     0.06200
H883        H  0.24344558  0.73317934  0.51198703     0.05200
H884        H  0.25826261  0.73752775  0.47564163    -0.00600
H885        H  0.26644968  0.74877918  0.51783870     0.00900
H886        H  0.27248646  0.67670959  0.53751854     0.04500
H887        H  0.25909485  0.67315014  0.57635585     0.06500
H888        H  0.28139384  0.69050994  0.57649186     0.07300
C889        C  0.39947662  0.80354544  0.50525474    -0.22300
C890        C  0.41430256  0.80890140  0.48418445     0.09700
C891        C  0.41464873  0.81482914  0.44908325     0.10100
C892        C  0.39945541  0.81342536  0.43488476    -0.17200
C893        C  0.38403848  0.80686790  0.45531594    -0.27600
C894        C  0.38497803  0.80372408  0.49233667     0.18400
C895        C  0.42881833  0.80752504  0.49955069     0.12400
C896        C  0.43108992  0.82308536  0.42683436    -0.12000
H897        H  0.39993428  0.81776694  0.40784684     0.12700
C898        C  0.37112145  0.80037734  0.51954459    -0.22800
H899        H  0.39918193  0.79918995  0.53236338     0.08300
C900        C  0.43726504  0.81595075  0.53176074     0.04700
C901        C  0.44852693  0.81163786  0.54829379    -0.20000
C902        C  0.45222293  0.79962946  0.53284801    -0.12300
C903        C  0.44637487  0.79407810  0.49719213     0.13400
C904        C  0.43362639  0.79678240  0.48260107    -0.22800
C905        C  0.43490133  0.82987890  0.54826982    -0.05800
H906        H  0.45463033  0.81794826  0.57327730     0.14900
C907        C  0.45382805  0.78629690  0.47260583    -0.16000
H908        H  0.42763554  0.79066316  0.45734730     0.09200
H909        H  0.37727909  0.80982517  0.54190683     0.07100
H910        H  0.36517536  0.78694745  0.53036315     0.08300
H911        H  0.36059869  0.80202509  0.50911829     0.07300
H912        H  0.43481622  0.81347678  0.42025739     0.02200
H913        H  0.44193031  0.83419589  0.44169959     0.02700
H914        H  0.42937917  0.82818951  0.40118326     0.06200
H915        H  0.44357633  0.83603507  0.57176500     0.05200
H916        H  0.42128743  0.82436080  0.55753743    -0.00600
H917        H  0.43819618  0.84028387  0.52833446     0.00900
H918        H  0.44375501  0.77245752  0.46671559     0.04500
H919        H  0.46576132  0.78722208  0.48326990     0.06500
H920        H  0.45781380  0.79366730  0.44708116     0.07300
C921        C  0.40791020  0.60882653  0.46890546    -0.22300
C922        C  0.41125808  0.59899941  0.49284531     0.09700
C923        C  0.42874624  0.60405401  0.50002619     0.10100
C924        C  0.44245522  0.61834176  0.48166487    -0.17200
C925        C  0.43904528  0.62791083  0.45704166    -0.27600
C926        C  0.42157716  0.62358259  0.45193718     0.18400
C927        C  0.39621814  0.58389983  0.51102373     0.12400
C928        C  0.43292268  0.59454320  0.52739897    -0.12000
H929        H  0.45585185  0.62186806  0.48605845     0.12700
C930        C  0.41686859  0.63461506  0.43016430    -0.22800
H931        H  0.39450730  0.60522024  0.46417572     0.08300
C932        C  0.38674078  0.58635023  0.53797992     0.04700
C933        C  0.37247253  0.57172616  0.55409408    -0.20000
C934        C  0.36742848  0.55462356  0.54416666    -0.12300
C935        C  0.37724573  0.55220564  0.51771147     0.13400
C936        C  0.39130406  0.56688383  0.50105269    -0.22800
C937        C  0.39184692  0.60439308  0.55019851    -0.05800
H938        H  0.36507374  0.57366154  0.57445799     0.14900
C939        C  0.37395525  0.53453606  0.50755007    -0.16000
H940        H  0.39871917  0.56505003  0.48054115     0.09200
H941        H  0.40895781  0.63817038  0.44678428     0.07100
H942        H  0.40902078  0.62708785  0.40658302     0.08300
H943        H  0.42841869  0.64704722  0.42101480     0.07300
H944        H  0.42708848  0.58069894  0.51933546     0.02200
H945        H  0.42753269  0.59508216  0.55373080     0.02700
H946        H  0.44725444  0.60046699  0.53042537     0.06200
H947        H  0.38341035  0.60393213  0.57238608     0.05200
H948        H  0.39056817  0.61171313  0.52784068    -0.00600
H949        H  0.40560038  0.61154635  0.55976108     0.00900
H950        H  0.36986928  0.53174886  0.47914209     0.04500
H951        H  0.36386696  0.52390220  0.52420527     0.06500
H952        H  0.38617121  0.53444066  0.51110443     0.07300
C953        C  0.45334988  0.72467440  0.52977404    -0.22300
C954        C  0.46943099  0.72600705  0.52397519     0.09700
C955        C  0.48493501  0.74089082  0.53683188     0.10100
C956        C  0.48411297  0.75475319  0.55171476    -0.17200
C957        C  0.46810980  0.75384901  0.55563442    -0.27600
C958        C  0.45242948  0.73795502  0.54726701     0.18400
C959        C  0.46985199  0.71221524  0.50283200     0.12400
C960        C  0.50237794  0.74223056  0.53519320    -0.12000
H961        H  0.49620083  0.76664658  0.55876690     0.12700
C962        C  0.43456863  0.73425368  0.55748247    -0.22800
H963        H  0.44137512  0.71321064  0.52051369     0.08300
C964        C  0.46119812  0.69457562  0.51391365     0.04700
C965        C  0.46164354  0.68217760  0.49179467    -0.20000
C966        C  0.47142556  0.68712849  0.46002002    -0.12300
C967        C  0.48130449  0.70506146  0.45074122     0.13400
C968        C  0.47939718  0.71706913  0.47087214    -0.22800
C969        C  0.45197573  0.68883264  0.54942005    -0.05800
H970        H  0.45422202  0.66852797  0.49936686     0.14900
C971        C  0.49488211  0.71231132  0.42150285    -0.16000
H972        H  0.48606314  0.73057081  0.46225042     0.09200
H973        H  0.42755921  0.72189050  0.57291590     0.07100
H974        H  0.42691078  0.73281140  0.53307608     0.08300
H975        H  0.43515910  0.74453072  0.57482410     0.07300
H976        H  0.50664535  0.74288570  0.50719581     0.02200
H977        H  0.50136543  0.73072542  0.54851817     0.02700
H978        H  0.51276825  0.75415254  0.54896376     0.06200
H979        H  0.44702103  0.67484779  0.55473421     0.05200
H980        H  0.44059987  0.69046694  0.55010840    -0.00600
H981        H  0.46121603  0.69667383  0.57116620     0.00900
H982        H  0.49058041  0.71746430  0.39953481     0.04500
H983        H  0.49775502  0.70263265  0.41068554     0.06500
H984        H  0.50744326  0.72315497  0.43242674     0.07300
C985        C  0.53619256  0.81693086  0.51830690    -0.22300
C986        C  0.54771303  0.82977684  0.54238302     0.09700
C987        C  0.54124703  0.83229154  0.57471349     0.10100
C988        C  0.52321387  0.82203841  0.58190108    -0.17200
C989        C  0.51162562  0.80953225  0.55724628    -0.27600
C990        C  0.51821424  0.80677818  0.52524953     0.18400
C991        C  0.56633465  0.84087252  0.53199572     0.12400
C992        C  0.55333309  0.84595640  0.60117552    -0.12000
H993        H  0.51806381  0.82418879  0.60622115     0.12700
C994        C  0.50670133  0.79341436  0.49764250    -0.22800
H995        H  0.54125372  0.81503482  0.49354855     0.08300
C996        C  0.57825082  0.83539777  0.53739939     0.04700
C997        C  0.59533403  0.84560392  0.52393848    -0.20000
C998        C  0.60059289  0.86091657  0.50447971    -0.12300
C999        C  0.58875105  0.86663952  0.49996973     0.13400
C1000       C  0.57174873  0.85649520  0.51377749    -0.22800
C1001       C  0.57277148  0.81858017  0.55655021    -0.05800
H1002       H  0.60438997  0.84119328  0.52722075     0.14900
C1003       C  0.59359424  0.88343763  0.48134871    -0.16000
H1004       H  0.56252620  0.86064969  0.50978568     0.09200
H1005       H  0.51100014  0.78400756  0.49360550     0.07100
H1006       H  0.50783576  0.80006324  0.47194481     0.08300
H1007       H  0.49272084  0.78583638  0.50524701     0.07300
H1008       H  0.55987845  0.85905830  0.58854666     0.02200
H1009       H  0.56341494  0.84319059  0.61006652     0.02700
H1010       H  0.54616202  0.84620172  0.62511509     0.06200
H1011       H  0.58367870  0.81619866  0.55845999     0.05200
H1012       H  0.56182183  0.80743856  0.54196840    -0.00600
H1013       H  0.56842721  0.81908682  0.58403511     0.00900
H1014       H  0.58534958  0.88049127  0.45716323     0.04500
H1015       H  0.60752256  0.89125141  0.47334584     0.06500
H1016       H  0.59122169  0.89170711  0.49962328     0.07300
C1017       C  0.56700534  0.68989093  0.46245524    -0.22300
C1018       C  0.55387871  0.67576813  0.48188012     0.09700
C1019       C  0.55857863  0.66783324  0.50829256     0.10100
C1020       C  0.57638837  0.67431622  0.51480088    -0.17200
C1021       C  0.58962289  0.68854242  0.49544510    -0.27600
C1022       C  0.58480131  0.69666406  0.46932970     0.18400
C1023       C  0.53534511  0.66969350  0.47386501     0.12400
C1024       C  0.54481017  0.65274080  0.52992421    -0.12000
H1025       H  0.58001365  0.66828836  0.53525064     0.12700
C1026       C  0.59776333  0.71308734  0.44961181    -0.22800
H1027       H  0.56330108  0.69603963  0.44241149     0.08300
C1028       C  0.52763547  0.67904933  0.48563065     0.04700
C1029       C  0.51082611  0.67407720  0.47349734    -0.20000
C1030       C  0.50156233  0.65990535  0.45005607    -0.12300
C1031       C  0.50877625  0.64973130  0.44067135     0.13400
C1032       C  0.52569771  0.65494862  0.45215863    -0.22800
C1033       C  0.53727005  0.69442099  0.51050862    -0.05800
H1034       H  0.50527915  0.68181415  0.48090399     0.14900
C1035       C  0.49892833  0.63323050  0.41888307    -0.16000
H1036       H  0.53150700  0.64758110  0.44373625     0.09200
H1037       H  0.59434649  0.72316456  0.45373329     0.07100
H1038       H  0.59712534  0.71023742  0.42060600     0.08300
H1039       H  0.61142438  0.71898372  0.45868345     0.07300
H1040       H  0.53629019  0.64159521  0.51202876     0.02200
H1041       H  0.53669612  0.65676278  0.54438263     0.02700
H1042       H  0.55070132  0.64822516  0.54990396     0.06200
H1043       H  0.52928125  0.70011723  0.51749042     0.05200
H1044       H  0.54952829  0.70478301  0.49776523    -0.00600
H1045       H  0.54052824  0.69018162  0.53559326     0.00900
H1046       H  0.50549698  0.63509522  0.39271552     0.04500
H1047       H  0.49873909  0.62237511  0.43333846     0.06500
H1048       H  0.48512297  0.62916397  0.41434391     0.07300
C1049       C  0.63794166  0.77970369  0.50956774    -0.22300
C1050       C  0.65129563  0.79173032  0.48707924     0.09700
C1051       C  0.66327386  0.78778036  0.47242321     0.10100
C1052       C  0.66155811  0.77171527  0.48053476    -0.17200
C1053       C  0.64831381  0.75971014  0.50347417    -0.27600
C1054       C  0.63627088  0.76373318  0.51803582     0.18400
C1055       C  0.65229251  0.80833510  0.47923699     0.12400
C1056       C  0.67776841  0.80049847  0.44816966    -0.12000
H1057       H  0.67071020  0.76860164  0.46926981     0.12700
C1058       C  0.62124783  0.75106829  0.54149167    -0.22800
H1059       H  0.62874918  0.78285804  0.52044501     0.08300
C1060       C  0.64168584  0.80927087  0.45281320     0.04700
C1061       C  0.64224883  0.82499067  0.44783628    -0.20000
C1062       C  0.65305990  0.83985116  0.46892003    -0.12300
C1063       C  0.66389978  0.83886738  0.49518070     0.13400
C1064       C  0.66335448  0.82309625  0.49988678    -0.22800
C1065       C  0.62967965  0.79362088  0.43006633    -0.05800
H1066       H  0.63393923  0.82553108  0.42760444     0.14900
C1067       C  0.67589647  0.85414094  0.51876038    -0.16000
H1068       H  0.67138705  0.82213921  0.52022401     0.09200
H1069       H  0.61320583  0.73838980  0.52739054     0.07100
H1070       H  0.61256845  0.75597599  0.54844360     0.08300
H1071       H  0.62629225  0.74904908  0.56688835     0.07300
H1072       H  0.68634481  0.81295045  0.46261585     0.02200
H1073       H  0.67213386  0.80310493  0.42436671     0.02700
H1074       H  0.68595971  0.79536808  0.43887668     0.06200
H1075       H  0.62238252  0.79661331  0.41037924     0.05200
H1076       H  0.61999578  0.78276543  0.44723114    -0.00600
H1077       H  0.63743468  0.78929995  0.41516932     0.00900
H1078       H  0.66813893  0.85800739  0.53501867     0.04500
H1079       H  0.68551187  0.86529864  0.50212055     0.06500
H1080       H  0.68336734  0.85092100  0.53750690     0.07300
C1081       C  0.45758039  0.65205774  0.20331603    -0.22300
C1082       C  0.47196963  0.65717142  0.22548750     0.09700
C1083       C  0.48833838  0.66248981  0.21042565     0.10100
C1084       C  0.48984232  0.66196593  0.17330815    -0.17200
C1085       C  0.47526159  0.65594280  0.15032239    -0.27600
C1086       C  0.45901011  0.65180295  0.16602607     0.18400
C1087       C  0.46973399  0.65699752  0.26458255     0.12400
C1088       C  0.50432687  0.66895641  0.23361409    -0.12000
H1089       H  0.50276612  0.66688217  0.16300966     0.12700
C1090       C  0.44277256  0.64732640  0.14515397    -0.22800
H1091       H  0.44512411  0.64844068  0.21527511     0.08300
C1092       C  0.47003225  0.67084696  0.28256864     0.04700
C1093       C  0.46904717  0.67057343  0.31997460    -0.20000
C1094       C  0.46801534  0.65681844  0.34033922    -0.12300
C1095       C  0.46752846  0.64275048  0.32132928     0.13400
C1096       C  0.46824189  0.64307960  0.28395912    -0.22800
C1097       C  0.47192177  0.68618862  0.26222072    -0.05800
H1098       H  0.46966276  0.68161918  0.33251736     0.14900
C1099       C  0.46675186  0.62717779  0.33853056    -0.16000
H1100       H  0.46810492  0.63251035  0.26966979     0.09200
H1101       H  0.43843997  0.65636199  0.15306503     0.07100
H1102       H  0.43215365  0.63375916  0.15147800     0.08300
H1103       H  0.44448612  0.64845724  0.11593201     0.07300
H1104       H  0.50237419  0.65847292  0.25216036     0.02200
H1105       H  0.50664777  0.68045261  0.24935270     0.02700
H1106       H  0.51624714  0.67292862  0.21757498     0.06200
H1107       H  0.47217163  0.69611415  0.28028521     0.05200
H1108       H  0.46075493  0.68166370  0.24354627    -0.00600
H1109       H  0.48431468  0.69258018  0.24675890     0.00900
H1110       H  0.45487474  0.61500550  0.32910255     0.04500
H1111       H  0.46635431  0.62700936  0.36786288     0.06500
H1112       H  0.47845708  0.62680983  0.33054525     0.07300
C1113       C  0.66612758  0.71354002  0.68629805    -0.22300
C1114       C  0.65266477  0.71245939  0.70727093     0.09700
C1115       C  0.63758311  0.71038680  0.69077555     0.10100
C1116       C  0.63610638  0.70903121  0.65357185    -0.17200
C1117       C  0.64956060  0.71021923  0.63244918    -0.27600
C1118       C  0.66478893  0.71246738  0.64888980     0.18400
C1119       C  0.65439919  0.71345526  0.74655644     0.12400
C1120       C  0.62323051  0.71001542  0.71237541    -0.12000
H1121       H  0.62458739  0.70756966  0.64076451     0.12700
C1122       C  0.67954650  0.71324337  0.62808306    -0.22800
H1123       H  0.67766606  0.71510866  0.69920773     0.08300
C1124       C  0.64648301  0.69821617  0.76758969     0.04700
C1125       C  0.64642963  0.69974024  0.80483545    -0.20000
C1126       C  0.65441776  0.71616598  0.82156006    -0.12300
C1127       C  0.66309284  0.73147596  0.80036779     0.13400
C1128       C  0.66288636  0.72988488  0.76302539    -0.22800
C1129       C  0.63801896  0.68037398  0.75065809    -0.05800
H1130       H  0.63999275  0.68801132  0.82099674     0.14900
C1131       C  0.67189240  0.74948006  0.81662450    -0.16000
H1132       H  0.66892874  0.74149380  0.74647140     0.09200
H1133       H  0.68158443  0.70274261  0.63742760     0.07100
H1134       H  0.69175714  0.72607377  0.63258987     0.08300
H1135       H  0.67701020  0.71141422  0.59897995     0.07300
H1136       H  0.62862404  0.72238819  0.72764727     0.02200
H1137       H  0.61755110  0.69889579  0.73130945     0.02700
H1138       H  0.61249635  0.70857385  0.69512206     0.06200
H1139       H  0.63257471  0.66983968  0.77100933     0.05200
H1140       H  0.64787732  0.67937309  0.73472151    -0.00600
H1141       H  0.62717562  0.67816014  0.73284624     0.00900
H1142       H  0.68287676  0.75165439  0.83396146     0.04500
H1143       H  0.66229668  0.75090375  0.83258621     0.06500
H1144       H  0.67736532  0.75984401  0.79589925     0.07300
C1145       C  0.57468085  0.67353539  0.01473277    -0.22300
C1146       C  0.56270274  0.67625536  0.99647211     0.09700
C1147       C  0.56794292  0.68627848  0.96492525     0.10100
C1148       C  0.58505839  0.69334314  0.95227487    -0.17200
C1149       C  0.59733045  0.69113793  0.97094835    -0.27600
C1150       C  0.59196792  0.68087069  0.00245963     0.18400
C1151       C  0.54554504  0.67054905  0.01313764     0.12400
C1152       C  0.55570354  0.69016954  0.94542036    -0.12000
H1153       H  0.58905017  0.70121409  0.92824654     0.12700
C1154       C  0.60423406  0.67746130  0.02320306    -0.22800
H1155       H  0.57058108  0.66601210  0.03923795     0.08300
C1156       C  0.52991658  0.65517810  0.00273114     0.04700
C1157       C  0.51388475  0.65144629  0.01751652    -0.20000
C1158       C  0.51326826  0.66254254  0.04307716    -0.12300
C1159       C  0.52913449  0.67791476  0.05365297     0.13400
C1160       C  0.54497478  0.68153203  0.03874502    -0.22800
C1161       C  0.53026972  0.64252473  0.97693534    -0.05800
H1162       H  0.50185473  0.63958781  0.00988296     0.14900
C1163       C  0.53008784  0.69127723  0.07957744    -0.16000
H1164       H  0.55703532  0.69336565  0.04646385     0.09200
H1165       H  0.59753632  0.66848666  0.04599918     0.07100
H1166       H  0.61517798  0.68988002  0.03427992     0.08300
H1167       H  0.60946255  0.67135068  0.00550383     0.07300
H1168       H  0.55165080  0.69723152  0.96341056     0.02200
H1169       H  0.54390584  0.67785583  0.93642691     0.02700
H1170       H  0.56198572  0.69843388  0.92151535     0.06200
H1171       H  0.51695045  0.63103880  0.97200147     0.05200
H1172       H  0.53847584  0.63777495  0.98804566    -0.00600
H1173       H  0.53583133  0.64898861  0.95097596     0.00900
H1174       H  0.53692893  0.69129376  0.10427126     0.04500
H1175       H  0.51718814  0.68915780  0.08684069     0.06500
H1176       H  0.53759994  0.70446502  0.06733371     0.07300
C1177       C  0.64201109  0.86929967  0.21490607    -0.22300
C1178       C  0.65346135  0.88595052  0.22904424     0.09700
C1179       C  0.66347787  0.90014342  0.20593978     0.10100
C1180       C  0.66165085  0.89736950  0.16890581    -0.17200
C1181       C  0.64990171  0.88076961  0.15461343    -0.27600
C1182       C  0.64014523  0.86645903  0.17793988     0.18400
C1183       C  0.65448855  0.88810439  0.26824762     0.12400
C1184       C  0.67582279  0.91820216  0.22041474    -0.12000
H1185       H  0.66904363  0.90832581  0.15098585     0.12700
C1186       C  0.62809267  0.84797240  0.16510911    -0.22800
H1187       H  0.63449292  0.85842133  0.23292394     0.08300
C1188       C  0.64241896  0.89065032  0.28697556     0.04700
C1189       C  0.64273307  0.89088748  0.32436408    -0.20000
C1190       C  0.65480151  0.88856941  0.34357128    -0.12300
C1191       C  0.66740557  0.88672524  0.32454800     0.13400
C1192       C  0.66702490  0.88648899  0.28703324    -0.22800
C1193       C  0.62900629  0.89279386  0.26747019    -0.05800
H1194       H  0.63321609  0.89254543  0.33866932     0.14900
C1195       C  0.68087326  0.88437025  0.34323616    -0.16000
H1196       H  0.67626233  0.88459393  0.27219436     0.09200
H1197       H  0.61447604  0.84334425  0.17346434     0.07100
H1198       H  0.63211249  0.83936824  0.17725541     0.08300
H1199       H  0.62832358  0.84650100  0.13580880     0.07300
H1200       H  0.68592766  0.91811671  0.23728296     0.02200
H1201       H  0.66847570  0.92251758  0.23679646     0.02700
H1202       H  0.68255902  0.92785531  0.19865812     0.06200
H1203       H  0.62060422  0.89476436  0.28619974     0.05200
H1204       H  0.62043245  0.88095060  0.25127491    -0.00600
H1205       H  0.63567128  0.90431495  0.24957532     0.00900
H1206       H  0.68935550  0.88279733  0.32397712     0.04500
H1207       H  0.67427914  0.87249820  0.36020554     0.06500
H1208       H  0.68946712  0.89601539  0.35992202     0.07300
C1209       C  0.67034952  0.82949270  0.98283949    -0.22300
C1210       C  0.65726303  0.81223456  0.99077474     0.09700
C1211       C  0.64244591  0.80899467  0.01037463     0.10100
C1212       C  0.64100037  0.82308753  0.02139323    -0.17200
C1213       C  0.65401211  0.84046346  0.01341988    -0.27600
C1214       C  0.66911912  0.84369940  0.99440641     0.18400
C1215       C  0.65921290  0.79761904  0.97863975     0.12400
C1216       C  0.62798657  0.79061589  0.01912591    -0.12000
H1217       H  0.62941826  0.82045672  0.03590002     0.12700
C1218       C  0.68459637  0.86175028  0.98714388    -0.22800
H1219       H  0.68182022  0.83190995  0.96815604     0.08300
C1220       C  0.65488410  0.79102767  0.94355807     0.04700
C1221       C  0.65473862  0.77580144  0.93461084    -0.20000
C1222       C  0.65884226  0.76691227  0.95988509    -0.12300
C1223       C  0.66430306  0.77426682  0.99451004     0.13400
C1224       C  0.66433765  0.78948589  0.00338099    -0.22800
C1225       C  0.64990757  0.79976913  0.91585793    -0.05800
H1226       H  0.65089338  0.77056136  0.90784886     0.14900
C1227       C  0.66975060  0.76609881  0.02260263    -0.16000
H1228       H  0.66788124  0.79482202  0.03015850     0.09200
H1229       H  0.68583797  0.86424643  0.95794977     0.07100
H1230       H  0.69670047  0.86262720  0.99691948     0.08300
H1231       H  0.68391190  0.87225215  0.00081924     0.07300
H1232       H  0.63316579  0.78418570  0.03589807     0.02200
H1233       H  0.62250637  0.78302811  0.99408157     0.02700
H1234       H  0.61717193  0.79036903  0.03403193     0.06200
H1235       H  0.64671277  0.79283458  0.88980171     0.05200
H1236       H  0.66095803  0.81337188  0.91159050    -0.00600
H1237       H  0.63826846  0.79998554  0.92497885     0.00900
H1238       H  0.67388006  0.77384538  0.04771430     0.04500
H1239       H  0.68100692  0.76536782  0.01278159     0.06500
H1240       H  0.65863468  0.75282108  0.02917379     0.07300
C1241       C  0.47352109  0.77129035  0.78341157    -0.22300
C1242       C  0.47238022  0.78460721  0.76699708     0.09700
C1243       C  0.47031153  0.79633925  0.78811752     0.10100
C1244       C  0.46924462  0.79436463  0.82532445    -0.17200
C1245       C  0.46964775  0.78058199  0.84215893    -0.27600
C1246       C  0.47201064  0.76895381  0.82063121     0.18400
C1247       C  0.47247140  0.78551298  0.72751086     0.12400
C1248       C  0.46892686  0.81076040  0.77129687    -0.12000
H1249       H  0.46782538  0.80357137  0.84139719     0.12700
C1250       C  0.47218990  0.75344405  0.83491667    -0.22800
H1251       H  0.47504906  0.76227864  0.76686414     0.08300
C1252       C  0.48812433  0.79546674  0.70807863     0.04700
C1253       C  0.48739215  0.79631595  0.67073055    -0.20000
C1254       C  0.47137304  0.78736254  0.65242859    -0.12300
C1255       C  0.45573206  0.77672595  0.67195396     0.13400
C1256       C  0.45649709  0.77621900  0.70931282    -0.22800
C1257       C  0.50554436  0.80518537  0.72681315    -0.05800
H1258       H  0.49937509  0.80416974  0.65574818     0.14900
C1259       C  0.43813623  0.76515735  0.65456265    -0.16000
H1260       H  0.44454360  0.76830678  0.72440592     0.09200
H1261       H  0.48508228  0.75502365  0.82936543     0.07100
H1262       H  0.46182368  0.74137690  0.82152385     0.08300
H1263       H  0.46971195  0.75150721  0.86371984     0.07300
H1264       H  0.45744679  0.80507885  0.75314198     0.02200
H1265       H  0.48094793  0.81950563  0.75576518     0.02700
H1266       H  0.46729353  0.81877724  0.79166415     0.06200
H1267       H  0.51650738  0.81233518  0.70764872     0.05200
H1268       H  0.50767449  0.79582165  0.74176603    -0.00600
H1269       H  0.50583024  0.81481291  0.74579250     0.00900
H1270       H  0.43253861  0.75148291  0.66363046     0.04500
H1271       H  0.43873649  0.76497376  0.62509167     0.06500
H1272       H  0.42913913  0.76953830  0.66248653     0.07300
C1273       C  0.53210350  0.83333446  0.94299952    -0.22300
C1274       C  0.54106073  0.82591163  0.95758356     0.09700
C1275       C  0.53242669  0.80761080  0.96115457     0.10100
C1276       C  0.51477870  0.79716150  0.95125797    -0.17200
C1277       C  0.50539292  0.80459145  0.93894030    -0.27600
C1278       C  0.51437288  0.82287516  0.93334077     0.18400
C1279       C  0.55915562  0.83746574  0.97092621     0.12400
C1280       C  0.54176164  0.79914658  0.97606271    -0.12000
H1281       H  0.50822156  0.78315402  0.95392817     0.12700
C1282       C  0.50556377  0.83136403  0.91607994    -0.22800
H1283       H  0.53895477  0.84738312  0.93970706     0.08300
C1284       C  0.57387738  0.84223764  0.94945537     0.04700
C1285       C  0.59065886  0.85152448  0.96480580    -0.20000
C1286       C  0.59306447  0.85625372  0.00116919    -0.12300
C1287       C  0.57819287  0.85224307  0.02207534     0.13400
C1288       C  0.56147662  0.84287268  0.00659318    -0.22800
C1289       C  0.57181045  0.83738803  0.91048435    -0.05800
H1290       H  0.60190794  0.85474171  0.94842919     0.14900
C1291       C  0.57960474  0.85764442  0.06068197    -0.16000
H1292       H  0.55003212  0.83931150  0.02265711     0.09200
H1293       H  0.51500296  0.84539960  0.91045489     0.07100
H1294       H  0.49541587  0.83062126  0.93401543     0.08300
H1295       H  0.49954681  0.82476603  0.89035054     0.07300
H1296       H  0.54637456  0.80398176  0.00358269     0.02200
H1297       H  0.55317694  0.80234272  0.95903629     0.02700
H1298       H  0.53307419  0.78470258  0.97717116     0.06200
H1299       H  0.58464172  0.84212715  0.89743193     0.05200
H1300       H  0.56527347  0.84329777  0.89649925    -0.00600
H1301       H  0.56374247  0.82298108  0.90740327     0.00900
H1302       H  0.58848989  0.87202131  0.06311282     0.04500
H1303       H  0.58456198  0.85089075  0.07706369     0.06500
H1304       H  0.56672208  0.85417079  0.07189739     0.07300
C1305       C  0.45860534  0.71635256  0.94670655    -0.22300
C1306       C  0.46987316  0.71964516  0.97560026     0.09700
C1307       C  0.47983182  0.73670930  0.98975189     0.10100
C1308       C  0.47834753  0.75009422  0.97461417    -0.17200
C1309       C  0.46724963  0.74692203  0.94554964    -0.27600
C1310       C  0.45688286  0.72972271  0.93193787     0.18400
C1311       C  0.47044509  0.70499022  0.99219241     0.12400
C1312       C  0.49156699  0.74069569  0.02166386    -0.12000
H1313       H  0.48531565  0.76296948  0.98657842     0.12700
C1314       C  0.44344036  0.72485620  0.90298831    -0.22800
H1315       H  0.45073104  0.70316838  0.93632991     0.08300
C1316       C  0.45729672  0.69331994  0.01600308     0.04700
C1317       C  0.45939907  0.68093967  0.03428844    -0.20000
C1318       C  0.47443369  0.68005957  0.02967817    -0.12300
C1319       C  0.48742551  0.69154630  0.00517282     0.13400
C1320       C  0.48515816  0.70374818  0.98650760    -0.22800
C1321       C  0.44138560  0.69437915  0.02315079    -0.05800
H1322       H  0.44945308  0.67216651  0.05306731     0.14900
C1323       C  0.50425040  0.69195984  0.00030240    -0.16000
H1324       H  0.49525307  0.71288605  0.96841473     0.09200
H1325       H  0.43035634  0.71469225  0.91312131     0.07100
H1326       H  0.44675070  0.71950240  0.87965973     0.08300
H1327       H  0.44253546  0.73606492  0.89389447     0.07300
H1328       H  0.50194734  0.73795767  0.01523220     0.02200
H1329       H  0.48375911  0.73249576  0.04462123     0.02700
H1330       H  0.49805167  0.75461766  0.02982246     0.06200
H1331       H  0.43256505  0.68452176  0.04306855     0.05200
H1332       H  0.43387727  0.69200298  0.99806958    -0.00600
H1333       H  0.44546370  0.70753166  0.03366049     0.00900
H1334       H  0.50166398  0.67939384  0.98930684     0.04500
H1335       H  0.51100008  0.69462435  0.02631547     0.06500
H1336       H  0.51325958  0.70240507  0.98155066     0.07300
C1337       C  0.20740427  0.67261038  0.78749444    -0.22300
C1338       C  0.21932638  0.67008159  0.76832421     0.09700
C1339       C  0.23126006  0.66731353  0.78729397     0.10100
C1340       C  0.23044220  0.66639389  0.82476283    -0.17200
C1341       C  0.21792370  0.66802279  0.84387944    -0.27600
C1342       C  0.20633199  0.67132824  0.82495997     0.18400
C1343       C  0.21807872  0.66889482  0.72857270     0.12400
C1344       C  0.24436613  0.66454557  0.76813547    -0.12000
H1345       H  0.23929271  0.66383364  0.83927395     0.12700
C1346       C  0.19204911  0.67234934  0.84365878    -0.22800
H1347       H  0.19840625  0.67491595  0.77287602     0.08300
C1348       C  0.20343089  0.65478349  0.71135788     0.04700
C1349       C  0.20312042  0.65365067  0.67397546    -0.20000
C1350       C  0.21717826  0.66604527  0.65309910    -0.12300
C1351       C  0.23189299  0.68015154  0.67025234     0.13400
C1352       C  0.23200232  0.68154054  0.70774472    -0.22800
C1353       C  0.18835324  0.64049024  0.73229548    -0.05800
H1354       H  0.19188936  0.64279547  0.66086152     0.14900
C1355       C  0.24793636  0.69316257  0.64963658    -0.16000
H1356       H  0.24318515  0.69236057  0.72099307     0.09200
H1357       H  0.18348944  0.67378861  0.82442270     0.07100
H1358       H  0.19777545  0.68381267  0.86172726     0.08300
H1359       H  0.18371159  0.66021349  0.85915787     0.07300
H1360       H  0.25368489  0.67644216  0.75295091     0.02200
H1361       H  0.23748627  0.65330732  0.74950128     0.02700
H1362       H  0.25210992  0.66176441  0.78705553     0.06200
H1363       H  0.17849881  0.63000670  0.71458223     0.05200
H1364       H  0.18161154  0.64585326  0.74744817    -0.00600
H1365       H  0.19323531  0.63448902  0.75112120     0.00900
H1366       H  0.24495227  0.70112561  0.63203088     0.04500
H1367       H  0.25274652  0.68621397  0.63337373     0.06500
H1368       H  0.25870795  0.70232294  0.66770036     0.07300
C1369       C  0.34848916  0.78538723  0.28562129    -0.22300
C1370       C  0.34367520  0.79628758  0.26957241     0.09700
C1371       C  0.33846871  0.80561441  0.29130633     0.10100
C1372       C  0.33962783  0.80492900  0.32873322    -0.17200
C1373       C  0.34542229  0.79476146  0.34475111    -0.27600
C1374       C  0.34901978  0.78416410  0.32286060     0.18400
C1375       C  0.34419981  0.79748800  0.22995608     0.12400
C1376       C  0.33147746  0.81603862  0.27506502    -0.12000
H1377       H  0.33648035  0.81273219  0.34549843     0.12700
C1378       C  0.35303219  0.77110296  0.33777746    -0.22800
H1379       H  0.35183257  0.77771614  0.26888351     0.08300
C1380       C  0.35867967  0.81129056  0.21191789     0.04700
C1381       C  0.35928369  0.81107189  0.17444139    -0.20000
C1382       C  0.34613616  0.79704586  0.15447578    -0.12300
C1383       C  0.33182532  0.78300898  0.17270083     0.13400
C1384       C  0.33095734  0.78355770  0.21016832    -0.22800
C1385       C  0.37396337  0.82574653  0.23219278    -0.05800
H1386       H  0.37039445  0.82169196  0.16061572     0.14900
C1387       C  0.31809578  0.76683920  0.15337637    -0.16000
H1388       H  0.32017898  0.77274885  0.22431862     0.09200
H1389       H  0.36655870  0.77494205  0.33036643     0.07100
H1390       H  0.34373618  0.75799884  0.32637405     0.08300
H1391       H  0.35165397  0.76981052  0.36718850     0.07300
H1392       H  0.31965591  0.80726363  0.25895804     0.02200
H1393       H  0.34141280  0.82643989  0.25752415     0.02700
H1394       H  0.32778082  0.82232586  0.29586743     0.06200
H1395       H  0.38438150  0.83523456  0.21392822     0.05200
H1396       H  0.37972613  0.82012845  0.24972856    -0.00600
H1397       H  0.36969149  0.83300697  0.24886343     0.00900
H1398       H  0.30896254  0.75656568  0.17228686     0.04500
H1399       H  0.32443470  0.76133568  0.13723580     0.06500
H1400       H  0.31011626  0.76986995  0.13590857     0.07300
C1401       C  0.43250952  0.80651831  0.96792231    -0.22300
C1402       C  0.41874539  0.79404448  0.98883770     0.09700
C1403       C  0.41570606  0.77707351  0.99114569     0.10100
C1404       C  0.42723203  0.77324603  0.97422911    -0.17200
C1405       C  0.44185194  0.78595027  0.95450233    -0.27600
C1406       C  0.44381024  0.80267738  0.94996944     0.18400
C1407       C  0.40685086  0.79856559  0.00624036     0.12400
C1408       C  0.39998710  0.76283537  0.01080926    -0.12000
H1409       H  0.42418453  0.76001239  0.97603263     0.12700
C1410       C  0.45733412  0.81699783  0.92626125    -0.22800
H1411       H  0.43428299  0.81934597  0.96511395     0.08300
C1412       C  0.40818880  0.80267934  0.04278274     0.04700
C1413       C  0.39498938  0.80419241  0.05914783    -0.20000
C1414       C  0.38039267  0.80179009  0.03974342    -0.12300
C1415       C  0.38058184  0.80003287  0.00173121     0.13400
C1416       C  0.39358141  0.79802491  0.98590570    -0.22800
C1417       C  0.42354578  0.80538510  0.06449866    -0.05800
H1418       H  0.39627122  0.80697508  0.08729618     0.14900
C1419       C  0.36732227  0.80016107  0.97697368    -0.16000
H1420       H  0.39322365  0.79562608  0.95744068     0.09200
H1421       H  0.46621493  0.82860174  0.94280198     0.07100
H1422       H  0.46536617  0.81339175  0.91067073     0.08300
H1423       H  0.45065135  0.82076845  0.90661355     0.07300
H1424       H  0.38782884  0.76091147  0.99864255     0.02200
H1425       H  0.40049039  0.76644082  0.03931012     0.02700
H1426       H  0.39934610  0.75018394  0.00968621     0.06200
H1427       H  0.42275105  0.80874577  0.09269913     0.05200
H1428       H  0.43585829  0.81625024  0.05287088    -0.00600
H1429       H  0.42407003  0.79335044  0.06440117     0.00900
H1430       H  0.36817811  0.81286331  0.97859071     0.04500
H1431       H  0.35382453  0.78943461  0.98283021     0.06500
H1432       H  0.36981097  0.79851363  0.94861691     0.07300
C1433       C  0.29810876  0.73424095  0.02856480    -0.22300
C1434       C  0.28602976  0.73791800  0.01414722     0.09700
C1435       C  0.28782154  0.75416994  0.02122223     0.10100
C1436       C  0.30268824  0.76706688  0.03961671    -0.17200
C1437       C  0.31546130  0.76381332  0.05200878    -0.27600
C1438       C  0.31253518  0.74680087  0.04830674     0.18400
C1439       C  0.27106685  0.72402302  0.99367937     0.12400
C1440       C  0.27406150  0.75784628  0.00940617    -0.12000
H1441       H  0.30464856  0.77993107  0.04304592     0.12700
C1442       C  0.32404184  0.74128305  0.06551452    -0.22800
H1443       H  0.29614691  0.72138407  0.02468958     0.08300
C1444       C  0.27144254  0.72277999  0.95609748     0.04700
C1445       C  0.25749940  0.70828293  0.93852317    -0.20000
C1446       C  0.24341063  0.69502209  0.95790281    -0.12300
C1447       C  0.24276638  0.69683061  0.99550326     0.13400
C1448       C  0.25669396  0.71119409  0.01279214    -0.22800
C1449       C  0.28683469  0.73639158  0.93483682    -0.05800
H1450       H  0.25797301  0.70688928  0.90985688     0.14900
C1451       C  0.22749811  0.68410169  0.01840898    -0.16000
H1452       H  0.25641676  0.71234059  0.04159460     0.09200
H1453       H  0.33055529  0.73794705  0.04455546     0.07100
H1454       H  0.31588604  0.72957508  0.08232340     0.08300
H1455       H  0.33414620  0.75145062  0.08324553     0.07300
H1456       H  0.26133642  0.74826825  0.02189044     0.02200
H1457       H  0.27262066  0.75675999  0.97995043     0.02700
H1458       H  0.27744299  0.77116636  0.01732985     0.06200
H1459       H  0.28512977  0.73336772  0.90581989     0.05200
H1460       H  0.29893501  0.73703193  0.94377061    -0.00600
H1461       H  0.28842482  0.74936816  0.93874411     0.00900
H1462       H  0.23176379  0.67757716  0.03731851     0.04500
H1463       H  0.21623501  0.67400171  0.00283962     0.06500
H1464       H  0.22269354  0.69127904  0.03392073     0.07300
C1465       C  0.26504597  0.89572608  0.79385348    -0.22300
C1466       C  0.28116017  0.90260155  0.77660145     0.09700
C1467       C  0.29669926  0.90999083  0.79678565     0.10100
C1468       C  0.29562903  0.90937761  0.83417367    -0.17200
C1469       C  0.27941968  0.90201385  0.85167663    -0.27600
C1470       C  0.26395171  0.89545219  0.83118945     0.18400
C1471       C  0.28124954  0.90158512  0.73728880     0.12400
C1472       C  0.31433944  0.91864706  0.77888505    -0.12000
H1473       H  0.30751540  0.91467977  0.84983180     0.12700
C1474       C  0.24618473  0.88747387  0.84825159    -0.22800
H1475       H  0.25323763  0.89028357  0.77791322     0.08300
C1476       C  0.28139673  0.88777906  0.71983091     0.04700
C1477       C  0.28099343  0.88710929  0.68242090    -0.20000
C1478       C  0.27976567  0.89954362  0.66214244    -0.12300
C1479       C  0.27911618  0.91310868  0.67991745     0.13400
C1480       C  0.28004462  0.91402496  0.71732156    -0.22800
C1481       C  0.28143248  0.87348678  0.74068606    -0.05800
H1482       H  0.28123602  0.87657172  0.66895826     0.14900
C1483       C  0.27782382  0.92687036  0.65985930    -0.16000
H1484       H  0.27965413  0.92439850  0.73119424     0.09200
H1485       H  0.23555510  0.88236616  0.82805326     0.07100
H1486       H  0.24549206  0.89744639  0.86438054     0.08300
H1487       H  0.24377126  0.87642993  0.86549911     0.07300
H1488       H  0.31614402  0.92962165  0.76206545     0.02200
H1489       H  0.31533353  0.90914666  0.76176283     0.02700
H1490       H  0.32515499  0.92396279  0.79868727     0.06200
H1491       H  0.28123043  0.86352226  0.72281847     0.05200
H1492       H  0.26967553  0.86683213  0.75805276    -0.00600
H1493       H  0.29330845  0.87902101  0.75760382     0.00900
H1494       H  0.26527949  0.92076358  0.64497437     0.04500
H1495       H  0.28898306  0.93370240  0.64105971     0.06500
H1496       H  0.27820738  0.93681300  0.67809061     0.07300
C1497       C  0.32438722  0.83211406  0.01290695    -0.22300
C1498       C  0.32453124  0.84317025  0.03946503     0.09700
C1499       C  0.33068673  0.84295428  0.07398731     0.10100
C1500       C  0.33697121  0.83189546  0.08094141    -0.17200
C1501       C  0.33715302  0.82110846  0.05412934    -0.27600
C1502       C  0.33047576  0.82094170  0.01985042     0.18400
C1503       C  0.31765669  0.85443703  0.03041304     0.12400
C1504       C  0.33080236  0.85451913  0.10320769    -0.12000
H1505       H  0.34192751  0.83177189  0.10726671     0.12700
C1506       C  0.32911194  0.80886697  0.99032974    -0.22800
H1507       H  0.31929071  0.83207795  0.98663231     0.08300
C1508       C  0.32735562  0.86951409  0.00924553     0.04700
C1509       C  0.31950488  0.87864852  0.99790798    -0.20000
C1510       C  0.30225746  0.87312524  0.00753471    -0.12300
C1511       C  0.29264959  0.85816214  0.02938548     0.13400
C1512       C  0.30058527  0.84911535  0.04076188    -0.22800
C1513       C  0.34594328  0.87590534  0.99860273    -0.05800
H1514       H  0.32678998  0.89005980  0.98106617     0.14900
C1515       C  0.27374070  0.85060912  0.03946108    -0.16000
H1516       H  0.29314427  0.83737772  0.05666270     0.09200
H1517       H  0.33720847  0.81668227  0.96728038     0.07100
H1518       H  0.31526591  0.80065974  0.98159182     0.08300
H1519       H  0.33342724  0.79991592  0.99852750     0.07300
H1520       H  0.31724657  0.85119162  0.10865307     0.02200
H1521       H  0.33887139  0.86840604  0.09490371     0.02700
H1522       H  0.33631446  0.85293197  0.12843400     0.06200
H1523       H  0.35174771  0.88809153  0.98261857     0.05200
H1524       H  0.34639152  0.86585100  0.98227453    -0.00600
H1525       H  0.35406520  0.87863656  0.02291076     0.00900
H1526       H  0.26584437  0.83684620  0.03015973     0.04500
H1527       H  0.26786033  0.85758478  0.02759450     0.06500
H1528       H  0.27261416  0.85084741  0.06895498     0.07300
C1529       C  0.09044108  0.70889875  0.29735430    -0.22300
C1530       C  0.10111317  0.72492198  0.28015156     0.09700
C1531       C  0.11076300  0.74030590  0.30048903     0.10100
C1532       C  0.11008210  0.73921556  0.33783508    -0.17200
C1533       C  0.09994218  0.72309493  0.35526165    -0.27600
C1534       C  0.08953198  0.70777497  0.33473705     0.18400
C1535       C  0.10270532  0.72512192  0.24085392     0.12400
C1536       C  0.12200360  0.75778672  0.28274680    -0.12000
H1537       H  0.11796229  0.75096969  0.35352417     0.12700
C1538       C  0.07695009  0.69018272  0.35095191    -0.22800
H1539       H  0.08283213  0.69716723  0.28144448     0.08300
C1540       C  0.11504357  0.72218006  0.22444636     0.04700
C1541       C  0.11590799  0.72201513  0.18709576    -0.20000
C1542       C  0.10478203  0.72482104  0.16576363    -0.12300
C1543       C  0.09222682  0.72758425  0.18234880     0.13400
C1544       C  0.09152767  0.72789559  0.21978788    -0.22800
C1545       C  0.12732752  0.71928103  0.24644075    -0.05800
H1546       H  0.12547349  0.71986520  0.17443996     0.14900
C1547       C  0.07879231  0.72938751  0.16192829    -0.16000
H1548       H  0.08194571  0.72995049  0.23267933     0.09200
H1549       H  0.08114034  0.68090632  0.34424328     0.07100
H1550       H  0.06367375  0.68509515  0.33977686     0.08300
H1551       H  0.07577301  0.69057993  0.38029198     0.07300
H1552       H  0.11373356  0.76066815  0.26567879     0.02200
H1553       H  0.13209391  0.75763162  0.26593360     0.02700
H1554       H  0.12878172  0.76849320  0.30261802     0.06200
H1555       H  0.13622865  0.71725685  0.22939315     0.05200
H1556       H  0.11971065  0.70754458  0.26346510    -0.00600
H1557       H  0.13547029  0.73081752  0.26374329     0.00900
H1558       H  0.06549758  0.71943408  0.17151233     0.04500
H1559       H  0.07890127  0.72734820  0.13284113     0.06500
H1560       H  0.08096749  0.74256773  0.16665401     0.07300
C1561       C  0.17743510  0.69164402  0.95695947    -0.22300
C1562       C  0.15979904  0.67834920  0.95630353     0.09700
C1563       C  0.15506676  0.66153916  0.94471517     0.10100
C1564       C  0.16825800  0.65821439  0.93577776    -0.17200
C1565       C  0.18617818  0.67129195  0.93826413    -0.27600
C1566       C  0.19071583  0.68848206  0.94814927     0.18400
C1567       C  0.14697683  0.68223575  0.97165097     0.12400
C1568       C  0.13613292  0.64710573  0.94232813    -0.12000
H1569       H  0.16452052  0.64517528  0.92733555     0.12700
C1570       C  0.20927565  0.70356865  0.95192715    -0.22800
H1571       H  0.18083434  0.70454147  0.96580883     0.08300
C1572       C  0.14385381  0.68088983  0.00873070     0.04700
C1573       C  0.13417141  0.68751573  0.02356363    -0.20000
C1574       C  0.12760534  0.69569683  0.00236233    -0.12300
C1575       C  0.12994160  0.69613742  0.96474115     0.13400
C1576       C  0.13967575  0.68944654  0.94995005    -0.22800
C1577       C  0.15132005  0.67301740  0.03287624    -0.05800
H1578       H  0.13229829  0.68684507  0.05223451     0.14900
C1579       C  0.12276731  0.70405005  0.93997920    -0.16000
H1580       H  0.14218592  0.69043675  0.92147528     0.09200
H1581       H  0.20998345  0.71508456  0.96462597     0.07100
H1582       H  0.21552246  0.70803496  0.92546935     0.08300
H1583       H  0.21662434  0.69980427  0.96927410     0.07300
H1584       H  0.12920590  0.65088886  0.92336173     0.02200
H1585       H  0.12987113  0.64470978  0.96897341     0.02700
H1586       H  0.13464479  0.63470337  0.93279187     0.06200
H1587       H  0.14765949  0.67296699  0.06122445     0.05200
H1588       H  0.16581716  0.68063956  0.03110033    -0.00600
H1589       H  0.14632056  0.65931419  0.02477536     0.00900
H1590       H  0.12877566  0.71814196  0.94611087     0.04500
H1591       H  0.10833608  0.69714739  0.94294354     0.06500
H1592       H  0.12563056  0.70295716  0.91156768     0.07300
C1593       C  0.18352205  0.79284011  0.02528673    -0.22300
C1594       C  0.18086016  0.80554704  0.01062297     0.09700
C1595       C  0.16365669  0.80158048  0.00454986     0.10100
C1596       C  0.14942752  0.78499494  0.01393227    -0.17200
C1597       C  0.15202794  0.77228355  0.02927689    -0.27600
C1598       C  0.16938835  0.77625301  0.03460197     0.18400
C1599       C  0.19645928  0.82266681  0.00078850     0.12400
C1600       C  0.16036506  0.81488495  0.98835438    -0.12000
H1601       H  0.13621010  0.78200813  0.00956040     0.12700
C1602       C  0.17326055  0.76297698  0.04886636    -0.22800
H1603       H  0.19680585  0.79593653  0.02923590     0.08300
C1604       C  0.20599485  0.83578626  0.02649586     0.04700
C1605       C  0.22163839  0.85109406  0.01652543    -0.20000
C1606       C  0.22816934  0.85353389  0.98146810    -0.12300
C1607       C  0.21823230  0.84041268  0.95550784     0.13400
C1608       C  0.20251650  0.82522970  0.96558858    -0.22800
C1609       C  0.19972334  0.83351070  0.06453640    -0.05800
H1610       H  0.22905479  0.86097999  0.03657349     0.14900
C1611       C  0.22388495  0.84215183  0.91708022    -0.16000
H1612       H  0.19506729  0.81503768  0.94607049     0.09200
H1613       H  0.16859770  0.75956548  0.07681594     0.07100
H1614       H  0.18751088  0.76804483  0.04893922     0.08300
H1615       H  0.16677068  0.75106236  0.03190301     0.07300
H1616       H  0.16633833  0.81855582  0.96137201     0.02200
H1617       H  0.16623101  0.82671862  0.00551110     0.02700
H1618       H  0.14615701  0.80975460  0.98565344     0.06200
H1619       H  0.20861527  0.84504702  0.08124222     0.05200
H1620       H  0.19905737  0.82189130  0.07643303    -0.00600
H1621       H  0.18651362  0.83169246  0.06521872     0.00900
H1622       H  0.23635510  0.84244683  0.91512975     0.04500
H1623       H  0.22544086  0.85424676  0.90569863     0.06500
H1624       H  0.21408671  0.83101119  0.90053678     0.07300
C1625       C  0.31616111  0.51684554  0.78984970    -0.22300
C1626       C  0.33066485  0.52848285  0.76930258     0.09700
C1627       C  0.34629676  0.54074589  0.78657369     0.10100
C1628       C  0.34710757  0.54109391  0.82401656    -0.17200
C1629       C  0.33273638  0.52921197  0.84545020    -0.27600
C1630       C  0.31701134  0.51663345  0.82735117     0.18400
C1631       C  0.32982634  0.52661554  0.72974540     0.12400
C1632       C  0.36246857  0.55306521  0.76539474    -0.12000
H1633       H  0.35952797  0.55034418  0.83564513     0.12700
C1634       C  0.30086508  0.50214362  0.84564182    -0.22800
H1635       H  0.30423008  0.50726053  0.77632762     0.08300
C1636       C  0.33070845  0.51308947  0.71303366     0.04700
C1637       C  0.33132643  0.51252848  0.67563170    -0.20000
C1638       C  0.33130942  0.52531207  0.65373521    -0.12300
C1639       C  0.33105587  0.53933091  0.67126572     0.13400
C1640       C  0.32977758  0.53939487  0.70869825    -0.22800
C1641       C  0.33168570  0.49953784  0.73478787    -0.05800
H1642       H  0.33262028  0.50228754  0.66431600     0.14900
C1643       C  0.33265894  0.55493772  0.65236440    -0.16000
H1644       H  0.32946753  0.54998835  0.72179010     0.09200
H1645       H  0.29767527  0.48936815  0.83439052     0.07100
H1646       H  0.28966860  0.50383125  0.84060381     0.08300
H1647       H  0.30207435  0.50128171  0.87472356     0.07300
H1648       H  0.36000294  0.56174478  0.74878650     0.02200
H1649       H  0.36605075  0.54547902  0.74781115     0.02700
H1650       H  0.37383705  0.56147264  0.78292775     0.06200
H1651       H  0.33286327  0.49012352  0.71765859     0.05200
H1652       H  0.31967746  0.49200966  0.75115188    -0.00600
H1653       H  0.34327890  0.50603049  0.75264635     0.00900
H1654       H  0.32048669  0.55506217  0.65643466     0.04500
H1655       H  0.33518049  0.55551309  0.62344238     0.06500
H1656       H  0.34379519  0.56710140  0.66392157     0.07300
C1657       C  0.42832479  0.59101171  0.02744006    -0.22300
C1658       C  0.41845722  0.59503340  0.00496160     0.09700
C1659       C  0.42467410  0.61270592  0.99709324     0.10100
C1660       C  0.44037468  0.62595823  0.01260974    -0.17200
C1661       C  0.44994859  0.62199393  0.03615257    -0.27600
C1662       C  0.44401181  0.60423312  0.04302618     0.18400
C1663       C  0.40169346  0.58057724  0.98979698     0.12400
C1664       C  0.41463228  0.61757827  0.97259733    -0.12000
H1665       H  0.44478805  0.63952545  0.00757509     0.12700
C1666       C  0.45395223  0.59874241  0.06633077    -0.22800
H1667       H  0.42368752  0.57743843  0.03304581     0.08300
C1668       C  0.40145837  0.57078028  0.96015074     0.04700
C1669       C  0.38535094  0.55785376  0.94562603    -0.20000
C1670       C  0.36934684  0.55448512  0.95973465    -0.12300
C1671       C  0.36958072  0.56413858  0.98984564     0.13400
C1672       C  0.38577227  0.57699235  0.00460419    -0.22800
C1673       C  0.41821535  0.57430129  0.94320316    -0.05800
H1674       H  0.38523420  0.55051044  0.92254240     0.14900
C1675       C  0.35297376  0.56170728  0.00536059    -0.16000
H1676       H  0.38606024  0.58459383  0.02736472     0.09200
H1677       H  0.45677588  0.58993931  0.05097737     0.07100
H1678       H  0.44590757  0.59160890  0.08999220     0.08300
H1679       H  0.46666155  0.60990528  0.07564508     0.07300
H1680       H  0.40146264  0.61289415  0.98386024     0.02200
H1681       H  0.41320255  0.61152662  0.94596350     0.02700
H1682       H  0.42137917  0.63194524  0.96900650     0.06200
H1683       H  0.41569999  0.56573016  0.91972288     0.05200
H1684       H  0.42596132  0.57191572  0.96286448    -0.00600
H1685       H  0.42600768  0.58808580  0.93411649     0.00900
H1686       H  0.34491224  0.54849916  0.01706429     0.04500
H1687       H  0.34542335  0.56355094  0.98425843     0.06500
H1688       H  0.35572748  0.57127550  0.02700513     0.07300
C1689       C  0.19888976  0.50933049  0.28824837    -0.22300
C1690       C  0.20868000  0.52482586  0.26860169     0.09700
C1691       C  0.21848574  0.54086856  0.28691850     0.10100
C1692       C  0.21795063  0.54111002  0.32435908    -0.17200
C1693       C  0.20761659  0.52573953  0.34410294    -0.27600
C1694       C  0.19818584  0.50959077  0.32585386     0.18400
C1695       C  0.20702476  0.52430667  0.22900464     0.12400
C1696       C  0.22895069  0.55783614  0.26690867    -0.12000
H1697       H  0.22518569  0.55348843  0.33836810     0.12700
C1698       C  0.18649988  0.49281060  0.34558003    -0.22800
H1699       H  0.19123988  0.49708044  0.27399141     0.08300
C1700       C  0.21903707  0.52339695  0.20625631     0.04700
C1701       C  0.21744312  0.52423652  0.16899339    -0.20000
C1702       C  0.20398652  0.52578454  0.15389307    -0.12300
C1703       C  0.19133343  0.52561086  0.17688999     0.13400
C1704       C  0.19326552  0.52525530  0.21405000    -0.22800
C1705       C  0.23354473  0.52160439  0.22130763    -0.05800
H1706       H  0.22700173  0.52409947  0.15163931     0.14900
C1707       C  0.17525219  0.52510682  0.16352215    -0.16000
H1708       H  0.18384838  0.52558575  0.23159334     0.09200
H1709       H  0.19432473  0.48997072  0.36402870     0.07100
H1710       H  0.17949812  0.48154863  0.32702549     0.08300
H1711       H  0.17656201  0.49391520  0.36089897     0.07300
H1712       H  0.22015086  0.55980151  0.24945663     0.02200
H1713       H  0.23902057  0.55760810  0.25020112     0.02700
H1714       H  0.23571994  0.56918453  0.28533257     0.06200
H1715       H  0.24173366  0.52096347  0.19986952     0.05200
H1716       H  0.22787994  0.50944308  0.23731559    -0.00600
H1717       H  0.24213918  0.53293821  0.23869120     0.00900
H1718       H  0.16344068  0.51393640  0.17597449     0.04500
H1719       H  0.17343178  0.52322085  0.13428669     0.06500
H1720       H  0.17594728  0.53739190  0.17104954     0.07300
C1721       C  0.18950336  0.59816496  0.96473075    -0.22300
C1722       C  0.20345428  0.59837682  0.98187638     0.09700
C1723       C  0.22025358  0.61351055  0.98017273     0.10100
C1724       C  0.22250413  0.62851074  0.96370007    -0.17200
C1725       C  0.20827285  0.62917149  0.94951095    -0.27600
C1726       C  0.19180342  0.61310960  0.94733058     0.18400
C1727       C  0.20065601  0.58254148  0.00042480     0.12400
C1728       C  0.23587742  0.61384305  0.99589850    -0.12000
H1729       H  0.23569662  0.63959919  0.96152792     0.12700
C1730       C  0.17647724  0.61080502  0.92606541    -0.22800
H1731       H  0.17679122  0.58614358  0.96434903     0.08300
C1732       C  0.19676565  0.57988190  0.03709954     0.04700
C1733       C  0.19706404  0.56628193  0.05486224    -0.20000
C1734       C  0.20131366  0.55515856  0.03690515    -0.12300
C1735       C  0.20377777  0.55719890  0.99899393     0.13400
C1736       C  0.20363340  0.57094480  0.98171443    -0.22800
C1737       C  0.19256226  0.59164708  0.05756122    -0.05800
H1738       H  0.19394814  0.56463910  0.08287885     0.14900
C1739       C  0.20693676  0.54559878  0.97504127    -0.16000
H1740       H  0.20635227  0.57293921  0.95331219     0.09200
H1741       H  0.17190105  0.59959413  0.90747265     0.07100
H1742       H  0.17966431  0.62219309  0.90928820     0.08300
H1743       H  0.16559602  0.60802107  0.94439718     0.07300
H1744       H  0.23768541  0.60388401  0.98253284     0.02200
H1745       H  0.23382548  0.61097069  0.02491823     0.02700
H1746       H  0.24811596  0.62676757  0.99250955     0.06200
H1747       H  0.18970485  0.58782195  0.08608091     0.05200
H1748       H  0.18089694  0.59095025  0.04566057    -0.00600
H1749       H  0.20381802  0.60533659  0.05636146     0.00900
H1750       H  0.19660228  0.53972505  0.95421033     0.04500
H1751       H  0.20684144  0.53475498  0.98869998     0.06500
H1752       H  0.21984243  0.55355098  0.96173256     0.07300
C1753       C  0.26899785  0.53999535  0.05184832    -0.22300
C1754       C  0.26602634  0.52697417  0.02706369     0.09700
C1755       C  0.24858529  0.51394218  0.01826155     0.10100
C1756       C  0.23467069  0.51472240  0.03325880    -0.17200
C1757       C  0.23776034  0.52851698  0.05575899    -0.27600
C1758       C  0.25508436  0.54111197  0.06578107     0.18400
C1759       C  0.28126952  0.52805996  0.00846270     0.12400
C1760       C  0.24458686  0.49973127  0.99164006    -0.12000
H1761       H  0.22133492  0.50501588  0.02592989     0.12700
C1762       C  0.25889119  0.55576809  0.09097818    -0.22800
H1763       H  0.28232905  0.54974010  0.05919623     0.08300
C1764       C  0.29149248  0.54158387  0.98388542     0.04700
C1765       C  0.30484509  0.54140108  0.96478060    -0.20000
C1766       C  0.30814264  0.52787896  0.96883992    -0.12300
C1767       C  0.29798617  0.51439589  0.99375716     0.13400
C1768       C  0.28494014  0.51487819  0.01368081    -0.22800
C1769       C  0.28790029  0.55587231  0.97654128    -0.05800
H1770       H  0.31254068  0.55172539  0.94575038     0.14900
C1771       C  0.29975419  0.49876346  0.99770161    -0.16000
H1772       H  0.27711531  0.50456396  0.03263160     0.09200
H1773       H  0.27309125  0.56415294  0.09686806     0.07100
H1774       H  0.25187005  0.55030097  0.11655735     0.08300
H1775       H  0.25457485  0.56416246  0.07907957     0.07300
H1776       H  0.24927098  0.49134068  0.00182670     0.02200
H1777       H  0.25109339  0.50562482  0.96582399     0.02700
H1778       H  0.23031215  0.49121233  0.98660067     0.06200
H1779       H  0.29652629  0.56483275  0.95520638     0.05200
H1780       H  0.29024849  0.56381116  0.00093879    -0.00600
H1781       H  0.27412360  0.55006430  0.96777886     0.00900
H1782       H  0.31282597  0.50268456  0.00821883     0.04500
H1783       H  0.29755421  0.49225407  0.97142870     0.06500
H1784       H  0.28994856  0.48901811  0.01657567     0.07300
C1785       C  0.27552810  0.36407232  0.29910241    -0.22300
C1786       C  0.27719823  0.35106285  0.28263992     0.09700
C1787       C  0.27886036  0.33909104  0.30380663     0.10100
C1788       C  0.27800637  0.33993311  0.34119029    -0.17200
C1789       C  0.27594088  0.35275616  0.35800931    -0.27600
C1790       C  0.27509547  0.36526230  0.33644025     0.18400
C1791       C  0.27759225  0.35067352  0.24308951     0.12400
C1792       C  0.28188481  0.32568903  0.28695694    -0.12000
H1793       H  0.27904291  0.33053836  0.35731861     0.12700
C1794       C  0.27408809  0.38014468  0.35213931    -0.22800
H1795       H  0.27464488  0.37342544  0.28248183     0.08300
C1796       C  0.26225702  0.34026821  0.22293704     0.04700
C1797       C  0.26306614  0.34139454  0.18552794    -0.20000
C1798       C  0.27876733  0.35300523  0.16765003    -0.12300
C1799       C  0.29419466  0.36337834  0.18813466     0.13400
C1800       C  0.29336464  0.36196270  0.22555573    -0.22800
C1801       C  0.24493100  0.32840040  0.24093557    -0.05800
H1802       H  0.25117961  0.33349792  0.17023634     0.14900
C1803       C  0.31158261  0.37603803  0.17116342    -0.16000
H1804       H  0.30502558  0.37000582  0.24141136     0.09200
H1805       H  0.27418297  0.38889594  0.33115017     0.07100
H1806       H  0.28555735  0.38817316  0.36972693     0.08300
H1807       H  0.26178007  0.37499001  0.36752750     0.07300
H1808       H  0.29413082  0.33237425  0.27102956     0.02200
H1809       H  0.27081023  0.31695034  0.26914571     0.02700
H1810       H  0.28316060  0.31748524  0.30735640     0.06200
H1811       H  0.23418767  0.32135825  0.22122952     0.05200
H1812       H  0.24160854  0.33619984  0.25847394    -0.00600
H1813       H  0.24561217  0.31852499  0.25730621     0.00900
H1814       H  0.31086716  0.38649700  0.15714911     0.04500
H1815       H  0.31521201  0.36902491  0.15204265     0.06500
H1816       H  0.32220914  0.38247002  0.19131242     0.07300
C1817       C  0.33474044  0.47491571  0.98989205    -0.22300
C1818       C  0.31912290  0.46008699  0.97826596     0.09700
C1819       C  0.30888183  0.46182161  0.95210169     0.10100
C1820       C  0.31452575  0.47832547  0.93795234    -0.17200
C1821       C  0.33003674  0.49330192  0.94969039    -0.27600
C1822       C  0.34041127  0.49154951  0.97577701     0.18400
C1823       C  0.31335930  0.44278914  0.99399747     0.12400
C1824       C  0.29192218  0.44624916  0.93919903    -0.12000
H1825       H  0.30649273  0.47962634  0.91814140     0.12700
C1826       C  0.35773333  0.50666837  0.98837301    -0.22800
H1827       H  0.34260271  0.47347154  0.00989970     0.08300
C1828       C  0.31906763  0.43200749  0.98030078     0.04700
C1829       C  0.31175762  0.41496553  0.99367984    -0.20000
C1830       C  0.29889534  0.40853089  0.02044435    -0.12300
C1831       C  0.29315830  0.41941579  0.03398458     0.13400
C1832       C  0.30067080  0.43646560  0.02089024    -0.22800
C1833       C  0.33263210  0.43842737  0.95120454    -0.05800
H1834       H  0.31609323  0.40662619  0.98323102     0.14900
C1835       C  0.27848307  0.41335472  0.06063139    -0.16000
H1836       H  0.29608481  0.44470444  0.03074825     0.09200
H1837       H  0.36808231  0.50364984  0.98388343     0.07100
H1838       H  0.35700530  0.50882593  0.01735578     0.08300
H1839       H  0.36177344  0.51894595  0.97402454     0.07300
H1840       H  0.28262419  0.44034331  0.96182033     0.02200
H1841       H  0.29438830  0.43637691  0.92764380     0.02700
H1842       H  0.28564387  0.44990962  0.91834774     0.06200
H1843       H  0.33561802  0.42835951  0.94342112     0.05200
H1844       H  0.34493371  0.45017305  0.96057566    -0.00600
H1845       H  0.32782672  0.44186389  0.92719463     0.00900
H1846       H  0.28352591  0.42135630  0.08530207     0.04500
H1847       H  0.27222624  0.39945501  0.06801533     0.06500
H1848       H  0.26808018  0.41503476  0.04908105     0.07300
C1849       C  0.11044280  0.34152560  0.79497622    -0.22300
C1850       C  0.10304249  0.34982665  0.77738872     0.09700
C1851       C  0.09606840  0.35804790  0.79739438     0.10100
C1852       C  0.09683410  0.35794341  0.83480987    -0.17200
C1853       C  0.10423028  0.34962122  0.85256252    -0.27600
C1854       C  0.11119378  0.34136426  0.83238749     0.18400
C1855       C  0.10359187  0.35052110  0.73793107     0.12400
C1856       C  0.08798418  0.36703490  0.77919536    -0.12000
H1857       H  0.09158575  0.36434363  0.85030245     0.12700
C1858       C  0.12022949  0.33317677  0.84998405    -0.22800
H1859       H  0.11596614  0.33545739  0.77925872     0.08300
C1860       C  0.11829880  0.36389981  0.71979548     0.04700
C1861       C  0.11836611  0.36411110  0.68236498    -0.20000
C1862       C  0.10420844  0.35104285  0.66261292    -0.12300
C1863       C  0.08946313  0.33756798  0.68093258     0.13400
C1864       C  0.08933500  0.33753937  0.71846489    -0.22800
C1865       C  0.13393302  0.37790032  0.74001934    -0.05800
H1866       H  0.12967964  0.37441016  0.66842779     0.14900
C1867       C  0.07365561  0.32349223  0.66126387    -0.16000
H1868       H  0.07809710  0.32734186  0.73276672     0.09200
H1869       H  0.12576841  0.32824319  0.83004754     0.07100
H1870       H  0.11081625  0.32196722  0.86672166     0.08300
H1871       H  0.13113983  0.34303946  0.86683065     0.07300
H1872       H  0.07671869  0.35746378  0.76264513     0.02200
H1873       H  0.09780759  0.37766019  0.76179299     0.02700
H1874       H  0.08319325  0.37285381  0.79878599     0.06200
H1875       H  0.14433290  0.38739680  0.72174494     0.05200
H1876       H  0.13954964  0.37186362  0.75673893    -0.00600
H1877       H  0.12993592  0.38517484  0.75749328     0.00900
H1878       H  0.07724201  0.31539950  0.64545456     0.04500
H1879       H  0.06845794  0.32950107  0.64325497     0.06500
H1880       H  0.06302114  0.31464447  0.67987207     0.07300
C1881       C  0.15714057  0.42626540  0.03563076    -0.22300
C1882       C  0.14904739  0.43593018  0.03271886     0.09700
C1883       C  0.13167012  0.42775475  0.02028005     0.10100
C1884       C  0.12295299  0.41017775  0.00977444    -0.17200
C1885       C  0.13118881  0.40061120  0.01172476    -0.27600
C1886       C  0.14843486  0.40865817  0.02525156     0.18400
C1887       C  0.15941290  0.45487465  0.04054487     0.12400
C1888       C  0.12243940  0.43764676  0.01772377    -0.12000
H1889       H  0.10977188  0.40395564  0.99919026     0.12700
C1890       C  0.15840671  0.39946724  0.02733851    -0.22800
H1891       H  0.17054326  0.43267034  0.04501202     0.08300
C1892       C  0.16243990  0.46133827  0.07578077     0.04700
C1893       C  0.17266307  0.47944278  0.08160791    -0.20000
C1894       C  0.17985539  0.49119349  0.05295679    -0.12300
C1895       C  0.17684652  0.48461921  0.01753681     0.13400
C1896       C  0.16661798  0.46652121  0.01188769    -0.22800
C1897       C  0.15482334  0.44911383  0.10709655    -0.05800
H1898       H  0.17507153  0.48447280  0.10868322     0.14900
C1899       C  0.18492553  0.49636703  0.98558390    -0.16000
H1900       H  0.16432667  0.46134902  0.98493127     0.09200
H1901       H  0.16233673  0.39944915  0.05543473     0.07100
H1902       H  0.17037198  0.40651705  0.01063256     0.08300
H1903       H  0.15079959  0.38575864  0.01793431     0.07300
H1904       H  0.12946906  0.44870693  0.99882322     0.02200
H1905       H  0.12205266  0.44279199  0.04445261     0.02700
H1906       H  0.10877494  0.42919136  0.00808928     0.06200
H1907       H  0.15825954  0.45631760  0.13285057     0.05200
H1908       H  0.15991746  0.44024676  0.10759788    -0.00600
H1909       H  0.14034401  0.44121635  0.10478952     0.00900
H1910       H  0.18234787  0.48876115  0.96053196     0.04500
H1911       H  0.19930858  0.50465667  0.98896945     0.06500
H1912       H  0.17932691  0.50466460  0.98200162     0.07300
C1913       C  0.17709339  0.34913918  0.97177644    -0.22300
C1914       C  0.17630268  0.33996466  0.00253004     0.09700
C1915       C  0.16084738  0.33178587  0.02311863     0.10100
C1916       C  0.14673506  0.33352847  0.01312749    -0.17200
C1917       C  0.14770270  0.34336494  0.98303937    -0.27600
C1918       C  0.16308861  0.35095844  0.96162716     0.18400
C1919       C  0.19254946  0.34087907  0.01448706     0.12400
C1920       C  0.15930215  0.32126771  0.05567003    -0.12000
H1921       H  0.13503452  0.32747784  0.02945139     0.12700
C1922       C  0.16521505  0.36127289  0.92829642    -0.22800
H1923       H  0.18905624  0.35542982  0.95621780     0.08300
C1924       C  0.19919663  0.33162299  0.99721126     0.04700
C1925       C  0.21564801  0.33459701  0.00734894    -0.20000
C1926       C  0.22558185  0.34652128  0.03465291    -0.12300
C1927       C  0.21850959  0.35538279  0.05261788     0.13400
C1928       C  0.20220209  0.35248759  0.04207728    -0.22800
C1929       C  0.18886745  0.31855532  0.96828627    -0.05800
H1930       H  0.22079784  0.32761836  0.99371763     0.14900
C1931       C  0.22811966  0.36835184  0.08222834    -0.16000
H1932       H  0.19704003  0.35963882  0.05497671     0.09200
H1933       H  0.17790755  0.36578613  0.91481116     0.07100
H1934       H  0.16482696  0.37307114  0.93507086     0.08300
H1935       H  0.15469544  0.35297521  0.90901002     0.07300
H1936       H  0.16929842  0.32973164  0.07574122     0.02200
H1937       H  0.16130525  0.31052523  0.04797027     0.02700
H1938       H  0.14622260  0.31540062  0.06835252     0.06200
H1939       H  0.19573690  0.31215592  0.95804481     0.05200
H1940       H  0.18676960  0.32514372  0.94556410    -0.00600
H1941       H  0.17598163  0.30825988  0.97902151     0.00900
H1942       H  0.24089300  0.37916387  0.07227665     0.04500
H1943       H  0.23011343  0.36176800  0.10511621     0.06500
H1944       H  0.22071929  0.37422142  0.09233584     0.07300
C1945       C  0.99204768  0.68708641  0.05054891    -0.22300
C1946       C  0.00037305  0.67918285  0.03507900     0.09700
C1947       C  0.99020947  0.66230083  0.02025982     0.10100
C1948       C  0.97188588  0.65349832  0.02200413    -0.17200
C1949       C  0.96341971  0.66112854  0.03839215    -0.27600
C1950       C  0.97370092  0.67828572  0.05256388     0.18400
C1951       C  0.01967003  0.68800327  0.03794638     0.12400
C1952       C  0.99874872  0.65348587  0.00312852    -0.12000
H1953       H  0.96412661  0.64039865  0.01114481     0.12700
C1954       C  0.96559088  0.68709258  0.07157162    -0.22800
H1955       H  0.00000169  0.69998530  0.06224340     0.08300
C1956       C  0.03115261  0.70110523  0.01388908     0.04700
C1957       C  0.04930161  0.70833248  0.01719807    -0.20000
C1958       C  0.05617034  0.70297098  0.04452128    -0.12300
C1959       C  0.04460257  0.69079994  0.07026758     0.13400
C1960       C  0.02652191  0.68312845  0.06593263    -0.22800
C1961       C  0.02421759  0.70729422  0.98466906    -0.05800
H1962       H  0.05812754  0.71800006  0.99809092     0.14900
C1963       C  0.05066433  0.68620423  0.10374839    -0.16000
H1964       H  0.01764645  0.67350094  0.08509392     0.09200
H1965       H  0.97565636  0.70014627  0.08207098     0.07100
H1966       H  0.95768783  0.67900108  0.09456363     0.08300
H1967       H  0.95717544  0.68899596  0.05283478     0.07300
H1968       H  0.00689509  0.65181731  0.02304843     0.02200
H1969       H  0.00716611  0.66158519  0.98066433     0.02700
H1970       H  0.98892335  0.64037856  0.99247143     0.06200
H1971       H  0.03493152  0.71754373  0.96802549     0.05200
H1972       H  0.01688145  0.71287344  0.99656282    -0.00600
H1973       H  0.01532985  0.69616219  0.96707610     0.00900
H1974       H  0.04443043  0.68822262  0.12735197     0.04500
H1975       H  0.06493057  0.69440235  0.10832222     0.06500
H1976       H  0.04670782  0.67226951  0.10276185     0.07300
C1977       C  0.88207102  0.55293562  0.00020112    -0.22300
C1978       C  0.86550883  0.54692714  0.98549701     0.09700
C1979       C  0.85924484  0.55833612  0.98324646     0.10100
C1980       C  0.86971059  0.57554049  0.99591854    -0.17200
C1981       C  0.88616406  0.58150922  0.01140714    -0.27600
C1982       C  0.89256432  0.57011645  0.01298095     0.18400
C1983       C  0.85499328  0.52860277  0.97267921     0.12400
C1984       C  0.84140263  0.55224119  0.96809647    -0.12000
H1985       H  0.86476479  0.58422185  0.99479160     0.12700
C1986       C  0.91053471  0.57566892  0.02670213    -0.22800
H1987       H  0.88690256  0.54416374  0.00145969     0.08300
C1988       C  0.85662234  0.52402984  0.93752541     0.04700
C1989       C  0.84703545  0.50638934  0.92716751    -0.20000
C1990       C  0.83551593  0.49321894  0.95072661    -0.12300
C1991       C  0.83374200  0.49790445  0.98595785     0.13400
C1992       C  0.84362260  0.51552234  0.99649560    -0.22800
C1993       C  0.86860247  0.53774906  0.91106467    -0.05800
H1994       H  0.84898706  0.50287504  0.90096468     0.14900
C1995       C  0.82151986  0.48482642  0.01316965    -0.16000
H1996       H  0.84240713  0.51910629  0.02351614     0.09200
H1997       H  0.91774651  0.57317350  0.00583436     0.07100
H1998       H  0.90931924  0.56795293  0.05082194     0.08300
H1999       H  0.91859645  0.58972675  0.03341037     0.07300
H2000       H  0.83125400  0.54114243  0.98411482     0.02200
H2001       H  0.84064849  0.54792369  0.94003077     0.02700
H2002       H  0.83847279  0.56278608  0.96845920     0.06200
H2003       H  0.86829587  0.53195734  0.88465738     0.05200
H2004       H  0.88225816  0.54468166  0.92114620    -0.00600
H2005       H  0.86453420  0.54733178  0.90715208     0.00900
H2006       H  0.82920869  0.48467286  0.03619748     0.04500
H2007       H  0.81355219  0.47137445  0.00253172     0.06500
H2008       H  0.81233000  0.48866951  0.02284553     0.07300
C2009       C  0.68030259  0.66966018  0.95793765    -0.22300
C2010       C  0.69726925  0.68011319  0.97151805     0.09700
C2011       C  0.70363739  0.69775077  0.97992644     0.10100
C2012       C  0.69301619  0.70464891  0.97348902    -0.17200
C2013       C  0.67604640  0.69427524  0.95924625    -0.27600
C2014       C  0.66949217  0.67634023  0.95217715     0.18400
C2015       C  0.70830529  0.67236628  0.97420651     0.12400
C2016       C  0.72153139  0.70922036  0.99603869    -0.12000
H2017       H  0.69808239  0.71828104  0.97942075     0.12700
C2018       C  0.65129191  0.66404955  0.93801580    -0.22800
H2019       H  0.67558581  0.65616290  0.95125066     0.08300
C2020       C  0.70430585  0.65867802  0.99823575     0.04700
C2021       C  0.71334087  0.64986990  0.99563014    -0.20000
C2022       C  0.72633584  0.65446816  0.96969737    -0.12300
C2023       C  0.73069205  0.66857278  0.94625723     0.13400
C2024       C  0.72170940  0.67739374  0.94916141    -0.22800
C2025       C  0.69047806  0.65332675  0.02653051    -0.05800
H2026       H  0.70999587  0.63907805  0.01347382     0.14900
C2027       C  0.74370623  0.67402704  0.91609796    -0.16000
H2028       H  0.72452199  0.68768538  0.93030344     0.09200
H2029       H  0.64856268  0.65058876  0.93435536     0.07100
H2030       H  0.64969286  0.66862889  0.91161427     0.08300
H2031       H  0.64146839  0.66326386  0.95716876     0.07300
H2032       H  0.73173026  0.71057529  0.97729043     0.02200
H2033       H  0.72244034  0.70334795  0.02136571     0.02700
H2034       H  0.72426232  0.72251591  0.00205364     0.06200
H2035       H  0.68947128  0.64284923  0.04390327     0.05200
H2036       H  0.67750032  0.64832606  0.01403532    -0.00600
H2037       H  0.69377631  0.66474976  0.04363485     0.00900
H2038       H  0.73714360  0.67326722  0.89043917     0.04500
H2039       H  0.74938534  0.66581234  0.91301194     0.06500
H2040       H  0.75456657  0.68773144  0.92037244     0.07300
C2041       C  0.82718114  0.65608673  0.98306927    -0.22300
C2042       C  0.82791951  0.64428930  0.00619868     0.09700
C2043       C  0.81242226  0.63082561  0.02213688     0.10100
C2044       C  0.79635653  0.62890471  0.01307275    -0.17200
C2045       C  0.79544534  0.64008206  0.98828242    -0.27600
C2046       C  0.81115286  0.65434503  0.97432855     0.18400
C2047       C  0.84490938  0.64575222  0.01239910     0.12400
C2048       C  0.81279043  0.61809326  0.04762978    -0.12000
H2049       H  0.78436959  0.61805012  0.02397862     0.12700
C2050       C  0.81161279  0.66818468  0.95092004    -0.22800
H2051       H  0.83919177  0.66666116  0.97159644     0.08300
C2052       C  0.85138794  0.63846242  0.98819986     0.04700
C2053       C  0.86660046  0.63851557  0.99686620    -0.20000
C2054       C  0.87534400  0.64551775  0.02934820    -0.12300
C2055       C  0.86947846  0.65388535  0.05242219     0.13400
C2056       C  0.85420432  0.65372372  0.04377498    -0.22800
C2057       C  0.84182928  0.62998282  0.95398469    -0.05800
H2058       H  0.87109371  0.63214376  0.97912679     0.14900
C2059       C  0.87908209  0.66333695  0.08596397    -0.16000
H2060       H  0.84935366  0.65963484  0.06189184     0.09200
H2061       H  0.81644440  0.66766220  0.92394222     0.07100
H2062       H  0.82064908  0.68125451  0.96276350     0.08300
H2063       H  0.79872616  0.66692234  0.94833329     0.07300
H2064       H  0.82095258  0.62520447  0.07120702     0.02200
H2065       H  0.81837551  0.61112111  0.03410189     0.02700
H2066       H  0.79948252  0.60820384  0.05727023     0.06200
H2067       H  0.84852744  0.62468254  0.93835242     0.05200
H2068       H  0.84111150  0.63972473  0.93715832    -0.00600
H2069       H  0.82836663  0.61903942  0.96008087     0.00900
H2070       H  0.88200197  0.67695086  0.08512706     0.04500
H2071       H  0.89175567  0.66419121  0.08918109     0.06500
H2072       H  0.87076388  0.65665447  0.10960439     0.07300
C2073       C  0.70828840  0.51188209  0.01153394    -0.22300
C2074       C  0.69589099  0.51593590  0.00109057     0.09700
C2075       C  0.67794649  0.50279847  0.00180927     0.10100
C2076       C  0.67279339  0.48592831  0.01382911    -0.17200
C2077       C  0.68520522  0.48204311  0.02550677    -0.27600
C2078       C  0.70322816  0.49523423  0.02418583     0.18400
C2079       C  0.70218626  0.53430356  0.99122636     0.12400
C2080       C  0.66429091  0.50677771  0.99096583    -0.12000
H2081       H  0.65901078  0.47591734  0.01538955     0.12700
C2082       C  0.71756170  0.49255609  0.03682898    -0.22800
H2083       H  0.72206230  0.52201491  0.01093010     0.08300
C2084       C  0.70706195  0.54727971  0.01759046     0.04700
C2085       C  0.71455001  0.56479354  0.00729238    -0.20000
C2086       C  0.71744971  0.56978829  0.97114345    -0.12300
C2087       C  0.71205830  0.55657242  0.94463880     0.13400
C2088       C  0.70449758  0.53903236  0.95514071    -0.22800
C2089       C  0.70447793  0.54263284  0.05667709    -0.05800
H2090       H  0.71848304  0.57468543  0.02779110     0.14900
C2091       C  0.71448353  0.56068927  0.90528648    -0.16000
H2092       H  0.70074486  0.52894980  0.93512022     0.09200
H2093       H  0.72493550  0.50185547  0.05882535     0.07100
H2094       H  0.72669245  0.49502171  0.01444931     0.08300
H2095       H  0.71266736  0.47926727  0.04687070     0.07300
H2096       H  0.66634201  0.51112850  0.96271213     0.02200
H2097       H  0.66527216  0.51730125  0.00822446     0.02700
H2098       H  0.65085992  0.49513934  0.99353403     0.06200
H2099       H  0.70874379  0.55428419  0.07380916     0.05200
H2100       H  0.71220117  0.53675688  0.06435809    -0.00600
H2101       H  0.69041252  0.53311713  0.06201522     0.00900
H2102       H  0.70938019  0.54871605  0.88873930     0.04500
H2103       H  0.72861013  0.56933963  0.89907876     0.06500
H2104       H  0.70730035  0.56711778  0.89743227     0.07300
C2105       C  0.72477131  0.43676042  0.00584487    -0.22300
C2106       C  0.73248819  0.44927661  0.97879672     0.09700
C2107       C  0.72471541  0.45868959  0.96835364     0.10100
C2108       C  0.71032778  0.45655772  0.98767893    -0.17200
C2109       C  0.70311688  0.44473594  0.01635490    -0.27600
C2110       C  0.70983014  0.43389966  0.02390633     0.18400
C2111       C  0.74866827  0.45207597  0.96200846     0.12400
C2112       C  0.73139022  0.47071921  0.93655139    -0.12000
H2113       H  0.70507414  0.46459345  0.98087636     0.12700
C2114       C  0.70132697  0.41873189  0.04948956    -0.22800
H2115       H  0.73035724  0.42898880  0.01262356     0.08300
C2116       C  0.76532269  0.46596395  0.97276754     0.04700
C2117       C  0.78033652  0.46696689  0.95896857    -0.20000
C2118       C  0.77903192  0.45385946  0.93653229    -0.12300
C2119       C  0.76239356  0.44026484  0.92491345     0.13400
C2120       C  0.74738743  0.43958425  0.93773073    -0.22800
C2121       C  0.76728753  0.47894990  0.00075702    -0.05800
H2122       H  0.79312739  0.47738404  0.96759553     0.14900
C2123       C  0.76005346  0.42626014  0.89929997    -0.16000
H2124       H  0.73456959  0.42891699  0.92964000     0.09200
H2125       H  0.71014509  0.42135536  0.07254569     0.07100
H2126       H  0.69888738  0.40672677  0.03564293     0.08300
H2127       H  0.68850623  0.41587728  0.05936781     0.07300
H2128       H  0.73050802  0.46316991  0.91232083     0.02200
H2129       H  0.74520438  0.48130056  0.94054324     0.02700
H2130       H  0.72360833  0.47685519  0.93176424     0.06200
H2131       H  0.78125704  0.48862488  0.00673480     0.05200
H2132       H  0.76087984  0.47197783  0.02589272    -0.00600
H2133       H  0.76117396  0.48622556  0.99168231     0.00900
H2134       H  0.75276652  0.41333810  0.91266098     0.04500
H2135       H  0.77264382  0.42838016  0.88938104     0.06500
H2136       H  0.75248030  0.42607354  0.87570736     0.07300
C2137       C  0.62196437  0.38913708  0.00522218    -0.22300
C2138       C  0.61351225  0.39407386  0.98102677     0.09700
C2139       C  0.62041755  0.41197734  0.97434519     0.10100
C2140       C  0.63544527  0.42459854  0.99298499    -0.17200
C2141       C  0.64366855  0.41962630  0.01796734    -0.27600
C2142       C  0.63710654  0.40159444  0.02323830     0.18400
C2143       C  0.59780149  0.38001835  0.96238179     0.12400
C2144       C  0.61194418  0.41768596  0.94756784    -0.12000
H2145       H  0.64055882  0.43836640  0.98866373     0.12700
C2146       C  0.64590576  0.39484621  0.04669675    -0.22800
H2147       H  0.61683630  0.37536013  0.00962157     0.08300
C2148       C  0.59940310  0.37062178  0.93409780     0.04700
C2149       C  0.58430507  0.35623811  0.91961256    -0.20000
C2150       C  0.56746796  0.35126836  0.93176488    -0.12300
C2151       C  0.56587995  0.36118276  0.95926982     0.13400
C2152       C  0.58110909  0.37518101  0.97476450    -0.22800
C2153       C  0.61705840  0.37587182  0.91898694    -0.05800
H2154       H  0.58569462  0.34877213  0.89857076     0.14900
C2155       C  0.54854144  0.35801640  0.97196088    -0.16000
H2156       H  0.57995915  0.38252846  0.99641414     0.09200
H2157       H  0.64868864  0.38615315  0.03080215     0.07100
H2158       H  0.63710105  0.38725191  0.06915054     0.08300
H2159       H  0.65851765  0.40527609  0.05777793     0.07300
H2160       H  0.59828144  0.41291403  0.95577718     0.02200
H2161       H  0.61185428  0.41224277  0.92088171     0.02700
H2162       H  0.61905584  0.43213808  0.94530653     0.06200
H2163       H  0.61593660  0.36736308  0.89632264     0.05200
H2164       H  0.62526652  0.37493282  0.93989095    -0.00600
H2165       H  0.62368630  0.38952825  0.90913089     0.00900
H2166       H  0.54647825  0.35378062  0.00029361     0.04500
H2167       H  0.53735414  0.34813610  0.95594319     0.06500
H2168       H  0.54854175  0.37031980  0.96989573     0.07300
C2169       C  0.55497937  0.24815644  0.97644031    -0.22300
C2170       C  0.54992116  0.25684341  0.99958245     0.09700
C2171       C  0.54740775  0.25233913  0.03600504     0.10100
C2172       C  0.55078461  0.23966589  0.04858815    -0.17200
C2173       C  0.55613216  0.23091599  0.02569756    -0.27600
C2174       C  0.55775769  0.23508085  0.98853776     0.18400
C2175       C  0.54623522  0.26966264  0.98375966     0.12400
C2176       C  0.54053154  0.26038662  0.06123950    -0.12000
H2177       H  0.54880361  0.23635524  0.07641905     0.12700
C2178       C  0.56104406  0.22521456  0.96036644    -0.22800
H2179       H  0.55634197  0.25140464  0.94826381     0.08300
C2180       C  0.55904120  0.28768816  0.98258263     0.04700
C2181       C  0.55564863  0.29895698  0.96320547    -0.20000
C2182       C  0.54016560  0.29244590  0.94351069    -0.12300
C2183       C  0.52738908  0.27432860  0.94449465     0.13400
C2184       C  0.53052951  0.26324445  0.96498682    -0.22800
C2185       C  0.57665141  0.29485234  0.99991965    -0.05800
H2186       H  0.56552007  0.31277185  0.96178092     0.14900
C2187       C  0.51037798  0.26616350  0.92413312    -0.16000
H2188       H  0.52089528  0.24933431  0.96529923     0.09200
H2189       H  0.57483662  0.22884735  0.96120569     0.07100
H2190       H  0.55886607  0.22844548  0.93300276     0.08300
H2191       H  0.55184429  0.21100889  0.96381147     0.07300
H2192       H  0.52751833  0.25742812  0.05193518     0.02200
H2193       H  0.54959180  0.27474687  0.06230744     0.02700
H2194       H  0.53903625  0.25520929  0.08877415     0.06200
H2195       H  0.58528224  0.30915010  0.99567290     0.05200
H2196       H  0.58322312  0.28840913  0.98833611    -0.00600
H2197       H  0.57511009  0.29242915  0.02907633     0.00900
H2198       H  0.50995109  0.25687177  0.90402134     0.04500
H2199       H  0.50842818  0.27585014  0.91018499     0.06500
H2200       H  0.49927311  0.25886270  0.94289678     0.07300
C2201       C  0.33984831  0.01545576  0.01025780    -0.22300
C2202       C  0.32584117  0.00563891  0.98685657     0.09700
C2203       C  0.32081692  0.01431334  0.96298589     0.10100
C2204       C  0.33033966  0.03266182  0.96217857    -0.17200
C2205       C  0.34506177  0.04264113  0.98418268    -0.27600
C2206       C  0.34961857  0.03382210  0.00915736     0.18400
C2207       C  0.31754154  0.98635208  0.98586756     0.12400
C2208       C  0.30583255  0.00418992  0.93739262    -0.12000
H2209       H  0.32668096  0.03919917  0.94303304     0.12700
C2210       C  0.36485470  0.04348251  0.03441533    -0.22800
H2211       H  0.34353825  0.00863931  0.02861543     0.08300
C2212       C  0.32560394  0.97866255  0.96779129     0.04700
C2213       C  0.31734552  0.96040938  0.96702423    -0.20000
C2214       C  0.30094752  0.94949485  0.98318245    -0.12300
C2215       C  0.29287455  0.95727561  0.00135408     0.13400
C2216       C  0.30136565  0.97562209  0.00265955    -0.22800
C2217       C  0.34272497  0.98972676  0.94845219    -0.05800
H2218       H  0.32356267  0.95463049  0.95271699     0.14900
C2219       C  0.27547151  0.94645001  0.01974412    -0.16000
H2220       H  0.29528668  0.98166382  0.01650174     0.09200
H2221       H  0.37729153  0.05051188  0.01918971     0.07100
H2222       H  0.36585057  0.03446516  0.05307329     0.08300
H2223       H  0.36324347  0.05287133  0.05066717     0.07300
H2224       H  0.29358240  0.99573588  0.95252868     0.02200
H2225       H  0.30853947  0.99590833  0.91990245     0.02700
H2226       H  0.30377689  0.01296741  0.92009812     0.06200
H2227       H  0.34705307  0.98162743  0.93500544     0.05200
H2228       H  0.35307141  0.99851525  0.96763595    -0.00600
H2229       H  0.34128037  0.99771195  0.92777989     0.00900
H2230       H  0.27159369  0.95473306  0.03398164     0.04500
H2231       H  0.27619265  0.93773451  0.03967900     0.06500
H2232       H  0.26512961  0.93853139  0.99980969     0.07300
C2233       C  0.45990084  0.12878996  0.98360207    -0.22300
C2234       C  0.46368707  0.13595378  0.01803031     0.09700
C2235       C  0.44989492  0.13281112  0.04094399     0.10100
C2236       C  0.43257138  0.12288587  0.02858464    -0.17200
C2237       C  0.42865858  0.11637831  0.99341097    -0.27600
C2238       C  0.44260689  0.11909533  0.97083048     0.18400
C2239       C  0.48221813  0.14840521  0.02782764     0.12400
C2240       C  0.45351621  0.14052754  0.07796556    -0.12000
H2241       H  0.42207962  0.12082632  0.04618289     0.12700
C2242       C  0.43963754  0.11230069  0.93303013    -0.22800
H2243       H  0.47064620  0.13139036  0.96617640     0.08300
C2244       C  0.49259857  0.14309318  0.04506327     0.04700
C2245       C  0.51028499  0.15553931  0.05223832    -0.20000
C2246       C  0.51783283  0.17316164  0.04245240    -0.12300
C2247       C  0.50723558  0.17841223  0.02548818     0.13400
C2248       C  0.48959835  0.16594897  0.01845960    -0.22800
C2249       C  0.48510696  0.12428118  0.05515859    -0.05800
H2250       H  0.51836182  0.15146310  0.06510226     0.14900
C2251       C  0.51444280  0.19682987  0.01291372    -0.16000
H2252       H  0.48149218  0.16983760  0.00502522     0.09200
H2253       H  0.45202784  0.11534945  0.91994436     0.07100
H2254       H  0.43397981  0.11844392  0.91678535     0.08300
H2255       H  0.43071191  0.09788242  0.93295020     0.07300
H2256       H  0.46162858  0.15499424  0.07634213     0.02200
H2257       H  0.46061501  0.13576759  0.09376756     0.02700
H2258       H  0.44125609  0.13689124  0.09238264     0.06200
H2259       H  0.49501311  0.12232779  0.06835681     0.05200
H2260       H  0.48037993  0.11597353  0.03084712    -0.00600
H2261       H  0.47400661  0.11994993  0.07389013     0.00900
H2262       H  0.50454555  0.19817201  0.99795990     0.04500
H2263       H  0.52559600  0.20069421  0.99473110     0.06500
H2264       H  0.51857291  0.20585727  0.03596102     0.07300
C2265       C  0.31751569  0.28579703  0.04137970    -0.22300
C2266       C  0.31998164  0.29667652  0.01232036     0.09700
C2267       C  0.33081397  0.29781257  0.98372804     0.10100
C2268       C  0.33944201  0.28855692  0.98556627    -0.17200
C2269       C  0.33726428  0.27801508  0.01505328    -0.27600
C2270       C  0.32593671  0.27639192  0.04307794     0.18400
C2271       C  0.31218126  0.30772526  0.01405421     0.12400
C2272       C  0.33332353  0.30881825  0.95139370    -0.12000
H2273       H  0.34827879  0.28989892  0.96435649     0.12700
C2274       C  0.32304730  0.26553949  0.07597855    -0.22800
H2275       H  0.30937889  0.28507277  0.06351943     0.08300
C2276       C  0.29395600  0.30052081  0.01218631     0.04700
C2277       C  0.28722046  0.31135220  0.01775926    -0.20000
C2278       C  0.29825164  0.32930521  0.02515097    -0.12300
C2279       C  0.31664862  0.33659970  0.02549021     0.13400
C2280       C  0.32327555  0.32567583  0.02020059    -0.22800
C2281       C  0.28161557  0.28141166  0.00421368    -0.05800
H2282       H  0.27318625  0.30564219  0.01698660     0.14900
C2283       C  0.32952149  0.35574762  0.03223325    -0.16000
H2284       H  0.33725416  0.33109492  0.02180108     0.09200
H2285       H  0.30888740  0.25560059  0.07873794     0.07100
H2286       H  0.32745993  0.27409314  0.09995710     0.08300
H2287       H  0.33017204  0.25857759  0.07534467     0.07300
H2288       H  0.33964489  0.32275535  0.95913546     0.02200
H2289       H  0.32043179  0.30440896  0.93896610     0.02700
H2290       H  0.34173847  0.30778553  0.93105852     0.06200
H2291       H  0.26783498  0.27801434  0.00250098     0.05200
H2292       H  0.28237669  0.27332079  0.02558230    -0.00600
H2293       H  0.28515991  0.27809666  0.97827076     0.00900
H2294       H  0.34327426  0.35900872  0.03115761     0.04500
H2295       H  0.32735734  0.35942622  0.05918114     0.06500
H2296       H  0.32802226  0.36367738  0.01152338     0.07300
C2297       C  0.45025050  0.31084806  0.99646727    -0.22300
C2298       C  0.45337708  0.30339830  0.96677653     0.09700
C2299       C  0.43913953  0.28938944  0.94861190     0.10100
C2300       C  0.42209384  0.28267955  0.96140038    -0.17200
C2301       C  0.41892884  0.28935276  0.99249156    -0.27600
C2302       C  0.43319557  0.30400602  0.00966437     0.18400
C2303       C  0.47163595  0.30903945  0.95732933     0.12400
C2304       C  0.44200673  0.28110660  0.91645005    -0.12000
H2305       H  0.41127322  0.27153832  0.94803298     0.12700
C2306       C  0.43065916  0.31253288  0.04182031    -0.22800
H2307       H  0.46128589  0.32166061  0.01010867     0.08300
C2308       C  0.48133345  0.32209223  0.93179716     0.04700
C2309       C  0.49762509  0.32508808  0.92052640    -0.20000
C2310       C  0.50445269  0.31524567  0.93400434    -0.12300
C2311       C  0.49496584  0.30281870  0.96132549     0.13400
C2312       C  0.47879767  0.30002319  0.97257696    -0.22800
C2313       C  0.47426736  0.33250748  0.91591417    -0.05800
H2314       H  0.50481886  0.33476786  0.90003242     0.14900
C2315       C  0.50052027  0.29139900  0.97833839    -0.16000
H2316       H  0.47126772  0.29007319  0.99244334     0.09200
H2317       H  0.44306244  0.32452013  0.04997765     0.07100
H2318       H  0.42603219  0.30346796  0.06488719     0.08300
H2319       H  0.42101647  0.31631361  0.03555405     0.07300
H2320       H  0.45019377  0.27571148  0.92390867     0.02200
H2321       H  0.44872183  0.29101585  0.89515492     0.02700
H2322       H  0.42946996  0.27027608  0.90542740     0.06200
H2323       H  0.48348480  0.34222606  0.89624157     0.05200
H2324       H  0.47204198  0.33962259  0.93743761    -0.00600
H2325       H  0.46169026  0.32365397  0.90209939     0.00900
H2326       H  0.50195912  0.29378368  0.00758590     0.04500
H2327       H  0.51293737  0.29368622  0.96817876     0.06500
H2328       H  0.49038481  0.27746867  0.97348822     0.07300
C2329       C  0.38095054  0.19524778  0.01946336    -0.22300
C2330       C  0.36757569  0.18224730  0.99841391     0.09700
C2331       C  0.35435904  0.18469362  0.98502031     0.10100
C2332       C  0.35488600  0.20025648  0.99290756    -0.17200
C2333       C  0.36822983  0.21334368  0.01431985    -0.27600
C2334       C  0.38148779  0.21073085  0.02773419     0.18400
C2335       C  0.36799325  0.16631274  0.99057856     0.12400
C2336       C  0.33973718  0.17086557  0.96246504    -0.12000
H2337       H  0.34472267  0.20211412  0.98258200     0.12700
C2338       C  0.39651076  0.22420559  0.05020891    -0.22800
H2339       H  0.39106993  0.19322373  0.02943637     0.08300
C2340       C  0.37794710  0.16585454  0.96203790     0.04700
C2341       C  0.37909619  0.15103699  0.95719314    -0.20000
C2342       C  0.37054990  0.13653849  0.98024063    -0.12300
C2343       C  0.36035203  0.13699102  0.00869596     0.13400
C2344       C  0.35926645  0.15191586  0.01347914    -0.22800
C2345       C  0.38746641  0.18108085  0.93682768    -0.05800
H2346       H  0.38684441  0.15087435  0.93519795     0.14900
C2347       C  0.35078523  0.12204896  0.03448705    -0.16000
H2348       H  0.35175521  0.15249159  0.03549174     0.09200
H2349       H  0.40375732  0.23678878  0.03557117     0.07100
H2350       H  0.40595870  0.22019021  0.05665785     0.08300
H2351       H  0.39153348  0.22602983  0.07594114     0.07300
H2352       H  0.33235833  0.15853726  0.97789142     0.02200
H2353       H  0.34518330  0.16846886  0.93805040     0.02700
H2354       H  0.33044254  0.17480125  0.95412067     0.06200
H2355       H  0.39460259  0.17857274  0.91580016     0.05200
H2356       H  0.39712587  0.19293370  0.95184590    -0.00600
H2357       H  0.37797189  0.18358915  0.92350162     0.00900
H2358       H  0.36023030  0.11963248  0.04834087     0.04500
H2359       H  0.34095287  0.11011249  0.01992908     0.06500
H2360       H  0.34372789  0.12483882  0.05520626     0.07300
C2361       C  0.98926578  0.27956772  0.96265048    -0.22300
C2362       C  0.99746538  0.29260098  0.98878150     0.09700
C2363       C  0.98715224  0.29607431  0.01167497     0.10100
C2364       C  0.96888778  0.28667722  0.00731707    -0.17200
C2365       C  0.96068623  0.27375440  0.98090210    -0.27600
C2366       C  0.97103870  0.27015395  0.95818856     0.18400
C2367       C  0.01689848  0.30346072  0.98925658     0.12400
C2368       C  0.99539375  0.30957529  0.04085288    -0.12000
H2369       H  0.96094906  0.28946127  0.02455023     0.12700
C2370       C  0.96362516  0.25731363  0.92759187    -0.22800
H2371       H  0.99723966  0.27718011  0.94463174     0.08300
C2372       C  0.02726389  0.29682499  0.00055462     0.04700
C2373       C  0.04559649  0.30732548  0.99761025    -0.20000
C2374       C  0.05386971  0.32439363  0.98382195    -0.12300
C2375       C  0.04332669  0.33110684  0.97322595     0.13400
C2376       C  0.02504796  0.32049858  0.97595640    -0.22800
C2377       C  0.01898046  0.27872187  0.01592816    -0.05800
H2378       H  0.05349368  0.30209617  0.00588542     0.14900
C2379       C  0.05098722  0.34918710  0.95790480    -0.16000
H2380       H  0.01695468  0.32540126  0.96696459     0.09200
H2381       H  0.96625842  0.24672061  0.93212933     0.07100
H2382       H  0.97006504  0.26411749  0.90233059     0.08300
H2383       H  0.94939927  0.25131256  0.92367562     0.07300
H2384       H  0.00428692  0.32267736  0.02919502     0.02200
H2385       H  0.00295511  0.30621051  0.05898858     0.02700
H2386       H  0.98540020  0.31026553  0.05698730     0.06200
H2387       H  0.02896390  0.27572318  0.02435748     0.05200
H2388       H  0.01043885  0.26887134  0.99571313    -0.00600
H2389       H  0.01102497  0.27756807  0.03965584     0.00900
H2390       H  0.04069479  0.35192224  0.95047518     0.04500
H2391       H  0.05855717  0.35056471  0.93337754     0.06500
H2392       H  0.05956298  0.35912749  0.97797143     0.07300
C2393       C  0.67743052  0.96088512  0.04892158    -0.22300
C2394       C  0.69017504  0.96865380  0.02221680     0.09700
C2395       C  0.69294310  0.95799057  0.99898066     0.10100
C2396       C  0.68293050  0.93971461  0.00318348    -0.17200
C2397       C  0.67002121  0.93182416  0.02983110    -0.27600
C2398       C  0.66730008  0.94266326  0.05308732     0.18400
C2399       C  0.70071843  0.98804794  0.02024634     0.12400
C2400       C  0.70637230  0.96592698  0.96968386    -0.12000
H2401       H  0.68512188  0.93154291  0.98538474     0.12700
C2402       C  0.65421644  0.93530019  0.08320873    -0.22800
H2403       H  0.67551301  0.96921309  0.06682587     0.08300
C2404       C  0.69412051  0.99754130  0.00400948     0.04700
C2405       C  0.70340656  0.01582767  0.00736162    -0.20000
C2406       C  0.71918943  0.02493574  0.02665171    -0.12300
C2407       C  0.72617484  0.01537578  0.04152982     0.13400
C2408       C  0.71682291  0.99706713  0.03807984    -0.22800
C2409       C  0.67711643  0.98831490  0.98368136    -0.05800
H2410       H  0.69803708  0.02300904  0.99559215     0.14900
C2411       C  0.74298243  0.02414300  0.06258038    -0.16000
H2412       H  0.72175851  0.98964170  0.05053210     0.09200
H2413       H  0.64076959  0.92717786  0.07232358     0.07100
H2414       H  0.65458346  0.94576556  0.09966999     0.08300
H2415       H  0.65713768  0.92730991  0.10105518     0.07300
H2416       H  0.71953326  0.97473071  0.98137834     0.02200
H2417       H  0.70313469  0.97355194  0.95148045     0.02700
H2418       H  0.70683198  0.95578086  0.95366539     0.06200
H2419       H  0.67388296  0.99766596  0.97230452     0.05200
H2420       H  0.66628517  0.97929207  0.00169863    -0.00600
H2421       H  0.67804776  0.98071982  0.96133954     0.00900
H2422       H  0.74180805  0.03105931  0.08596988     0.04500
H2423       H  0.75397389  0.03355325  0.04532013     0.06500
H2424       H  0.74620526  0.01458096  0.07274943     0.07300
C2425       C  0.80678445  0.15241111  0.02121312    -0.22300
C2426       C  0.82050958  0.15048192  0.00990386     0.09700
C2427       C  0.81786804  0.13363423  0.00723724     0.10100
C2428       C  0.80140449  0.11898982  0.01592111    -0.17200
C2429       C  0.78758587  0.12086376  0.02751859    -0.27600
C2430       C  0.79035394  0.13788729  0.02997347     0.18400
C2431       C  0.83727333  0.16646107  0.99994370     0.12400
C2432       C  0.83238778  0.13116467  0.99505036    -0.12000
H2433       H  0.79937000  0.10603947  0.01392696     0.12700
C2434       C  0.77599836  0.14097447  0.04059084    -0.22800
H2435       H  0.80894612  0.16543374  0.02281519     0.08300
C2436       C  0.83949370  0.17415500  0.96609714     0.04700
C2437       C  0.85453396  0.19050367  0.95924375    -0.20000
C2438       C  0.86749731  0.19949162  0.98547073    -0.12300
C2439       C  0.86554408  0.19133262  0.01903362     0.13400
C2440       C  0.85040679  0.17492834  0.02578322    -0.22800
C2441       C  0.82581664  0.16520399  0.93739794    -0.05800
H2442       H  0.85596261  0.19643894  0.93330952     0.14900
C2443       C  0.87898353  0.19989227  0.04825927    -0.16000
H2444       H  0.84852991  0.16886891  0.05174326     0.09200
H2445       H  0.76456374  0.13355431  0.02258431     0.07100
H2446       H  0.78029691  0.15499423  0.03877306     0.08300
H2447       H  0.77204165  0.13688083  0.06866765     0.07300
H2448       H  0.84366265  0.13802793  0.01361761     0.02200
H2449       H  0.83665474  0.13659887  0.96779122     0.02700
H2450       H  0.82816140  0.11714443  0.99433330     0.06200
H2451       H  0.82965238  0.17291777  0.91231332     0.05200
H2452       H  0.81321698  0.16339525  0.94653795    -0.00600
H2453       H  0.82392807  0.15224441  0.93132991     0.00900
H2454       H  0.88041706  0.21249677  0.05596582     0.04500
H2455       H  0.89173888  0.20213749  0.03896476     0.06500
H2456       H  0.87519311  0.19162057  0.07256113     0.07300
C2457       C  0.82944468  0.38435338  0.01760958    -0.22300
C2458       C  0.81413512  0.38466515  0.01293014     0.09700
C2459       C  0.79833573  0.37084172  0.02733719     0.10100
C2460       C  0.79802330  0.35650455  0.04324044    -0.17200
C2461       C  0.81316600  0.35554246  0.04605983    -0.27600
C2462       C  0.82940444  0.37074670  0.03624422     0.18400
C2463       C  0.81508727  0.39985841  0.99413385     0.12400
C2464       C  0.78181754  0.37130358  0.02668875    -0.12000
H2465       H  0.78570270  0.34577683  0.05320143     0.12700
C2466       C  0.84697465  0.37444122  0.04873176    -0.22800
H2467       H  0.84175850  0.39529935  0.00812341     0.08300
C2468       C  0.82443472  0.41695018  0.00826188     0.04700
C2469       C  0.82500200  0.43075796  0.98932613    -0.20000
C2470       C  0.81603770  0.42815176  0.95660696    -0.12300
C2471       C  0.80575410  0.41054527  0.94374621     0.13400
C2472       C  0.80602439  0.39698467  0.96196564    -0.22800
C2473       C  0.83307490  0.42057367  0.04442403    -0.05800
H2474       H  0.83178684  0.44339913  0.00186588     0.14900
C2475       C  0.79374918  0.40533192  0.91171006    -0.16000
H2476       H  0.79875581  0.38381722  0.95131992     0.09200
H2477       H  0.85481873  0.38801757  0.05914099     0.07100
H2478       H  0.85422499  0.37317622  0.02610659     0.08300
H2479       H  0.84587845  0.36604500  0.07140443     0.07300
H2480       H  0.77757731  0.37105915  0.99879533     0.02200
H2481       H  0.78416320  0.38335747  0.04013910     0.02700
H2482       H  0.77091104  0.35991481  0.04076099     0.06200
H2483       H  0.83889997  0.43441799  0.05259259     0.05200
H2484       H  0.84374300  0.41784751  0.04407933    -0.00600
H2485       H  0.82323569  0.41223799  0.06485232     0.00900
H2486       H  0.80130070  0.41008185  0.88664735     0.04500
H2487       H  0.78472784  0.41014955  0.91429483     0.06500
H2488       H  0.78539576  0.39091200  0.90892822     0.07300
C2489       C  0.86312376  0.31546919  0.04901640    -0.22300
C2490       C  0.85511853  0.29830188  0.03631497     0.09700
C2491       C  0.83675035  0.28803917  0.03333528     0.10100
C2492       C  0.82679182  0.29530593  0.04261503    -0.17200
C2493       C  0.83471694  0.31264947  0.05468174    -0.27600
C2494       C  0.85320276  0.32283632  0.05824318     0.18400
C2495       C  0.86622364  0.29143693  0.02533539     0.12400
C2496       C  0.82766934  0.26950925  0.01978158    -0.12000
H2497       H  0.81271117  0.28742332  0.03976722     0.12700
C2498       C  0.86266263  0.34124521  0.07262496    -0.22800
H2499       H  0.87725416  0.32317757  0.05139787     0.08300
C2500       C  0.87490229  0.29591811  0.99213489     0.04700
C2501       C  0.88441024  0.28830133  0.98185077    -0.20000
C2502       C  0.88534365  0.27615602  0.00380031    -0.12300
C2503       C  0.87688401  0.27194150  0.03747361     0.13400
C2504       C  0.86750906  0.27974308  0.04784458    -0.22800
C2505       C  0.87365780  0.30829700  0.96705950    -0.05800
H2506       H  0.89086543  0.29160325  0.95608245     0.14900
C2507       C  0.87698328  0.25873299  0.06197020    -0.16000
H2508       H  0.86076428  0.27640265  0.07330038     0.09200
H2509       H  0.86216090  0.35019024  0.05313519     0.07100
H2510       H  0.87671398  0.34624590  0.07757165     0.08300
H2511       H  0.85678633  0.34175349  0.09828311     0.07300
H2512       H  0.83041907  0.26147724  0.03784714     0.02200
H2513       H  0.83242516  0.26929289  0.99253026     0.02700
H2514       H  0.81325798  0.26343931  0.01847772     0.06200
H2515       H  0.88095379  0.31011687  0.94186429     0.05200
H2516       H  0.87922419  0.32127527  0.97994463    -0.00600
H2517       H  0.85974404  0.30307422  0.96015708     0.00900
H2518       H  0.86917733  0.25666193  0.08650925     0.04500
H2519       H  0.89058604  0.26334761  0.07035910     0.06500
H2520       H  0.87125338  0.24595881  0.04807094     0.07300
C2521       C  0.59968299  0.19132755  0.97830517    -0.22300
C2522       C  0.60569188  0.18288986  0.99989735     0.09700
C2523       C  0.59825884  0.17718094  0.03418728     0.10100
C2524       C  0.58620254  0.18143524  0.04685661    -0.17200
C2525       C  0.58077380  0.19077864  0.02582979    -0.27600
C2526       C  0.58619483  0.19369630  0.98948939     0.18400
C2527       C  0.61949355  0.18004807  0.98549882     0.12400
C2528       C  0.60233746  0.16595297  0.05695794    -0.12000
H2529       H  0.58058249  0.17679021  0.07301378     0.12700
C2530       C  0.57717363  0.19763485  0.96065217    -0.22800
H2531       H  0.60494654  0.19535005  0.95160520     0.08300
C2532       C  0.61730137  0.17082141  0.95334347     0.04700
C2533       C  0.63166906  0.17076821  0.93858134    -0.20000
C2534       C  0.64806957  0.17900031  0.95585374    -0.12300
C2535       C  0.64896021  0.18525830  0.99127303     0.13400
C2536       C  0.63531804  0.18704092  0.00405670    -0.22800
C2537       C  0.59974270  0.16050261  0.93506747    -0.05800
H2538       H  0.62981701  0.16390179  0.91370535     0.14900
C2539       C  0.66360415  0.18967777  0.01717455    -0.16000
H2540       H  0.63701720  0.19375705  0.02915822     0.09200
H2541       H  0.57379432  0.18830528  0.93819002     0.07100
H2542       H  0.58602600  0.21106183  0.95044543     0.08300
H2543       H  0.56464428  0.19575304  0.96972216     0.07300
H2544       H  0.61620119  0.17330188  0.06550752     0.02200
H2545       H  0.59960357  0.15420329  0.04164190     0.02700
H2546       H  0.59423380  0.16146255  0.08156219     0.06200
H2547       H  0.60010754  0.15287379  0.91210699     0.05200
H2548       H  0.59556373  0.16922955  0.92456629    -0.00600
H2549       H  0.58981952  0.15115324  0.95427716     0.00900
H2550       H  0.67084802  0.20385481  0.02345045     0.04500
H2551       H  0.67288478  0.18604534  0.00745937     0.06500
H2552       H  0.65797770  0.18227383  0.04232183     0.07300
C2553       C  0.70269468  0.14658389  0.98182550    -0.22300
C2554       C  0.69708145  0.13171207  0.96067746     0.09700
C2555       C  0.68632141  0.12874039  0.93079331     0.10100
C2556       C  0.68199602  0.14117403  0.92191190    -0.17200
C2557       C  0.68827009  0.15649364  0.94216590    -0.27600
C2558       C  0.69807740  0.15880610  0.97350742     0.18400
C2559       C  0.70218483  0.11921369  0.97162416     0.12400
C2560       C  0.67913468  0.11232178  0.90887130    -0.12000
H2561       H  0.67325097  0.13865606  0.89972305     0.12700
C2562       C  0.70337381  0.17359749  0.99951289    -0.22800
H2563       H  0.71048711  0.14849236  0.00544927     0.08300
C2564       C  0.71786643  0.12092646  0.95954207     0.04700
C2565       C  0.72325769  0.11014498  0.97405151    -0.20000
C2566       C  0.71348655  0.09791258  0.00084686    -0.12300
C2567       C  0.69728766  0.09563534  0.01160731     0.13400
C2568       C  0.69194746  0.10644868  0.99701396    -0.22800
C2569       C  0.72921942  0.13458068  0.93238228    -0.05800
H2570       H  0.73565649  0.11193194  0.96575328     0.14900
C2571       C  0.68513764  0.08185991  0.03782014    -0.16000
H2572       H  0.67981747  0.10511062  0.00593656     0.09200
H2573       H  0.71780440  0.18112616  0.00296792     0.07100
H2574       H  0.69721925  0.16818301  0.02582910     0.08300
H2575       H  0.69941205  0.18277585  0.99085416     0.07300
H2576       H  0.67104991  0.10074527  0.92604679     0.02200
H2577       H  0.69003082  0.11147533  0.89729746     0.02700
H2578       H  0.67081151  0.11198964  0.88658885     0.06200
H2579       H  0.74113289  0.13427448  0.92609139     0.05200
H2580       H  0.73342214  0.14777276  0.94282887    -0.00600
H2581       H  0.72178780  0.13231115  0.90723567     0.00900
H2582       H  0.68396290  0.08821880  0.06218359     0.04500
H2583       H  0.68940402  0.07282088  0.04561028     0.06500
H2584       H  0.67198572  0.07375078  0.02552692     0.07300
C2585       C  0.77085167  0.27195612  0.98012789    -0.22300
C2586       C  0.75552133  0.25925439  0.99709762     0.09700
C2587       C  0.75305231  0.26119467  0.03371521     0.10100
C2588       C  0.76551812  0.27643953  0.05190486    -0.17200
C2589       C  0.78033790  0.28970960  0.03424301    -0.27600
C2590       C  0.78336413  0.28710485  0.99819152     0.18400
C2591       C  0.74151031  0.24501916  0.97511087     0.12400
C2592       C  0.73720758  0.24723965  0.05340606    -0.12000
H2593       H  0.76344565  0.27824842  0.07969895     0.12700
C2594       C  0.79958538  0.29987034  0.97771885    -0.22800
H2595       H  0.77283087  0.27027281  0.95219065     0.08300
C2596       C  0.72765034  0.24640844  0.96183349     0.04700
C2597       C  0.71392325  0.23226543  0.94347256    -0.20000
C2598       C  0.71357357  0.21659490  0.93772391    -0.12300
C2599       C  0.72903150  0.21653321  0.94577877     0.13400
C2600       C  0.74249860  0.23050491  0.96559540    -0.22800
C2601       C  0.72732218  0.26284315  0.96710289    -0.05800
H2602       H  0.70302853  0.23328324  0.93457387     0.14900
C2603       C  0.73218609  0.20265121  0.93243222    -0.16000
H2604       H  0.75393676  0.23020650  0.97350557     0.09200
H2605       H  0.79588645  0.30474764  0.95423003     0.07100
H2606       H  0.80628245  0.29316666  0.96824661     0.08300
H2607       H  0.80914607  0.31123561  0.99372906     0.07300
H2608       H  0.73693119  0.23477252  0.05230657     0.02200
H2609       H  0.72507363  0.24525039  0.04105739     0.02700
H2610       H  0.73734924  0.25075414  0.08190482     0.06200
H2611       H  0.71562258  0.26183088  0.95459329     0.05200
H2612       H  0.73913403  0.27405182  0.95475666    -0.00600
H2613       H  0.72713792  0.26550216  0.99597259     0.00900
H2614       H  0.73282013  0.20307345  0.90283348     0.04500
H2615       H  0.72182421  0.18959935  0.94131298     0.06500
H2616       H  0.74481906  0.20474198  0.94219201     0.07300
C2617       C  0.81841797  0.45573773  0.70908099    -0.22300
C2618       C  0.80437058  0.45385164  0.72912213     0.09700
C2619       C  0.78924312  0.45102394  0.71132440     0.10100
C2620       C  0.78785657  0.44839061  0.67411463    -0.17200
C2621       C  0.80154590  0.44930093  0.65421749    -0.27600
C2622       C  0.81741281  0.45400198  0.67180980     0.18400
C2623       C  0.80596039  0.45475220  0.76865487     0.12400
C2624       C  0.77479240  0.45118153  0.73138968    -0.12000
H2625       H  0.77590189  0.44522039  0.66073805     0.12700
C2626       C  0.83370294  0.45772803  0.65226151    -0.22800
H2627       H  0.83030554  0.45863088  0.72267296     0.08300
C2628       C  0.79828490  0.43948473  0.78969105     0.04700
C2629       C  0.80117710  0.44091885  0.82673716    -0.20000
C2630       C  0.81228124  0.45717243  0.84331566    -0.12300
C2631       C  0.82042121  0.47238629  0.82178824     0.13400
C2632       C  0.81691890  0.47099128  0.78490748    -0.22800
C2633       C  0.78782657  0.42160677  0.77290200    -0.05800
H2634       H  0.79498640  0.42916766  0.84281444     0.14900
C2635       C  0.83383278  0.48992336  0.83659946    -0.16000
H2636       H  0.82326163  0.48258134  0.76831876     0.09200
H2637       H  0.83708250  0.44794699  0.65991510     0.07100
H2638       H  0.84471577  0.47094715  0.65971770     0.08300
H2639       H  0.83242362  0.45764701  0.62286618     0.07300
H2640       H  0.78010485  0.46405266  0.74463515     0.02200
H2641       H  0.76915330  0.44083390  0.75201430     0.02700
H2642       H  0.76405112  0.44903455  0.71326831     0.06200
H2643       H  0.78318326  0.41107525  0.79314455     0.05200
H2644       H  0.79610223  0.41988164  0.75337338    -0.00600
H2645       H  0.77620427  0.41997349  0.75890863     0.00900
H2646       H  0.83971426  0.50006821  0.81546628     0.04500
H2647       H  0.84454369  0.48898638  0.84882866     0.06500
H2648       H  0.82777226  0.49430515  0.85632574     0.07300
C2649       C  0.98720461  0.67476685  0.51620018    -0.22300
C2650       C  0.99752618  0.67050566  0.49567246     0.09700
C2651       C  0.98926320  0.65578068  0.47296478     0.10100
C2652       C  0.97094380  0.64562598  0.47143700    -0.17200
C2653       C  0.96049238  0.64994064  0.49141307    -0.27600
C2654       C  0.96877828  0.66476135  0.51417415     0.18400
C2655       C  0.01697176  0.68166991  0.49746244     0.12400
C2656       C  0.99976868  0.65103261  0.44943612    -0.12000
H2657       H  0.96474496  0.63444394  0.45365253     0.12700
C2658       C  0.95838173  0.66997216  0.53677610    -0.22800
H2659       H  0.99362694  0.68606353  0.53365390     0.08300
C2660       C  0.02629059  0.69795720  0.47994948     0.04700
C2661       C  0.04466394  0.70696127  0.47844473    -0.20000
C2662       C  0.05400631  0.69990337  0.49326704    -0.12300
C2663       C  0.04462843  0.68386250  0.51206430     0.13400
C2664       C  0.02627543  0.67509939  0.51423433    -0.22800
C2665       C  0.01682514  0.70548452  0.46150268    -0.05800
H2666       H  0.05170299  0.71921003  0.46405332     0.14900
C2667       C  0.05374887  0.67581020  0.52988642    -0.16000
H2668       H  0.01903481  0.66265970  0.52791079     0.09200
H2669       H  0.95087436  0.67371390  0.51943389     0.07100
H2670       H  0.96697600  0.68134686  0.55414067     0.08300
H2671       H  0.94926182  0.65892548  0.55424944     0.07300
H2672       H  0.00790990  0.64782303  0.46605936     0.02200
H2673       H  0.00837464  0.66217095  0.43164959     0.02700
H2674       H  0.99123519  0.63950540  0.43237924     0.06200
H2675       H  0.02605348  0.71810922  0.44830141     0.05200
H2676       H  0.00906920  0.70782845  0.48125349    -0.00600
H2677       H  0.00792381  0.69623971  0.44077281     0.00900
H2678       H  0.04445639  0.66389677  0.54516048     0.04500
H2679       H  0.06376295  0.68530440  0.54882714     0.06500
H2680       H  0.06003032  0.67190561  0.50953801     0.07300
C2681       C  0.91684931  0.61708197  0.29988167    -0.22300
C2682       C  0.91073777  0.62695411  0.28399373     0.09700
C2683       C  0.90473122  0.63556049  0.30562461     0.10100
C2684       C  0.90487855  0.63402045  0.34287923    -0.17200
C2685       C  0.91068041  0.62386977  0.35900727    -0.27600
C2686       C  0.91687755  0.61537888  0.33716558     0.18400
C2687       C  0.91045958  0.62784034  0.24454986     0.12400
C2688       C  0.89818183  0.64636014  0.28933395    -0.12000
H2689       H  0.90011809  0.64052607  0.35948208     0.12700
C2690       C  0.92393212  0.60488122  0.35280724    -0.22800
H2691       H  0.92151746  0.61060290  0.28293225     0.08300
C2692       C  0.92548555  0.63972034  0.22502317     0.04700
C2693       C  0.92460678  0.63985381  0.18762505    -0.20000
C2694       C  0.90902399  0.62836703  0.16923143    -0.12300
C2695       C  0.89383950  0.61668516  0.18910831     0.13400
C2696       C  0.89482508  0.61655209  0.22652086    -0.22800
C2697       C  0.94237879  0.65232496  0.24372476    -0.05800
H2698       H  0.93623788  0.64891163  0.17268079     0.14900
C2699       C  0.87644381  0.60462263  0.17145679    -0.16000
H2700       H  0.88332108  0.60760547  0.24193082     0.09200
H2701       H  0.92913624  0.60007902  0.33183079     0.07100
H2702       H  0.91337424  0.59329715  0.36700416     0.08300
H2703       H  0.93475807  0.61311322  0.37163835     0.07300
H2704       H  0.88671314  0.63800975  0.27200872     0.02200
H2705       H  0.90869338  0.65701876  0.27305088     0.02700
H2706       H  0.89410918  0.65235479  0.31005667     0.06200
H2707       H  0.95284204  0.66086162  0.22450525     0.05200
H2708       H  0.94694223  0.64500530  0.25937095    -0.00600
H2709       H  0.94031617  0.66079163  0.26204593     0.00900
H2710       H  0.87727590  0.59498391  0.15443822     0.04500
H2711       H  0.87259813  0.61232639  0.15501890     0.06500
H2712       H  0.86591764  0.59717253  0.19136293     0.07300
C2713       C  0.85403966  0.54785994  0.54628880    -0.22300
C2714       C  0.85973377  0.53619048  0.54116823     0.09700
C2715       C  0.87653940  0.54240690  0.52680715     0.10100
C2716       C  0.88683647  0.55990672  0.51597947    -0.17200
C2717       C  0.88088372  0.57143118  0.51975131    -0.27600
C2718       C  0.86440086  0.56543851  0.53587743     0.18400
C2719       C  0.84731514  0.51726252  0.54767162     0.12400
C2720       C  0.88359474  0.53057022  0.52277339    -0.12000
H2721       H  0.89947903  0.56455205  0.50376166     0.12700
C2722       C  0.85676809  0.57676297  0.54062614    -0.22800
H2723       H  0.84108213  0.54303925  0.55705977     0.08300
C2724       C  0.84204915  0.51028498  0.58233652     0.04700
C2725       C  0.83029898  0.49222718  0.58647229    -0.20000
C2726       C  0.82374992  0.48100651  0.55678706    -0.12300
C2727       C  0.82873760  0.48810016  0.52201551     0.13400
C2728       C  0.84049789  0.50610248  0.51802521    -0.22800
C2729       C  0.84913535  0.52177351  0.61492076    -0.05800
H2730       H  0.82644897  0.48677595  0.61307685     0.14900
C2731       C  0.82156897  0.47732872  0.48843265    -0.16000
H2732       H  0.84426790  0.51155605  0.49139772     0.09200
H2733       H  0.85433573  0.57756350  0.56943701     0.07100
H2734       H  0.84413760  0.57085624  0.52607064     0.08300
H2735       H  0.86527086  0.59022417  0.53051485     0.07300
H2736       H  0.87541977  0.51982717  0.50381474     0.02200
H2737       H  0.88359625  0.52495046  0.54914379     0.02700
H2738       H  0.89721038  0.53772350  0.51242916     0.06200
H2739       H  0.84406879  0.51410088  0.63995413     0.05200
H2740       H  0.84525301  0.53160485  0.61465729    -0.00600
H2741       H  0.86362806  0.52857334  0.61524813     0.00900
H2742       H  0.81575929  0.48302061  0.47124330     0.04500
H2743       H  0.81113909  0.46359695  0.49345125     0.06500
H2744       H  0.83235326  0.47749645  0.47358053     0.07300
C2745       C  0.67776663  0.67060130  0.46827047    -0.22300
C2746       C  0.69278380  0.67701044  0.48953186     0.09700
C2747       C  0.69859404  0.69231269  0.50991445     0.10100
C2748       C  0.68867337  0.70023845  0.51016153    -0.17200
C2749       C  0.67285038  0.69300288  0.49118581    -0.27600
C2750       C  0.66771436  0.67839134  0.46878553     0.18400
C2751       C  0.70083150  0.66629187  0.49370910     0.12400
C2752       C  0.71467968  0.69969580  0.53304212    -0.12000
H2753       H  0.69269424  0.71146978  0.52723246     0.12700
C2754       C  0.65182832  0.67069097  0.44501737    -0.22800
H2755       H  0.67348438  0.65901133  0.45218432     0.08300
C2756       C  0.69252053  0.65096889  0.51455371     0.04700
C2757       C  0.70076356  0.64158263  0.51984589    -0.20000
C2758       C  0.71734185  0.64716938  0.50537591    -0.12300
C2759       C  0.72557433  0.66242957  0.48386809     0.13400
C2760       C  0.71715144  0.67175210  0.47823909    -0.22800
C2761       C  0.67515394  0.64477974  0.53233121    -0.05800
H2762       H  0.69433535  0.63000240  0.53642143     0.14900
C2763       C  0.74310857  0.66898255  0.46666340    -0.16000
H2764       H  0.72342036  0.68350691  0.46215696     0.09200
H2765       H  0.64215489  0.65716623  0.45375738     0.07100
H2766       H  0.65575173  0.67029656  0.41707223     0.08300
H2767       H  0.64546779  0.67839799  0.44488001     0.07300
H2768       H  0.72630914  0.70350286  0.51618908     0.02200
H2769       H  0.71306189  0.68975460  0.55276571     0.02700
H2770       H  0.71712789  0.71145410  0.54795796     0.06200
H2771       H  0.67078894  0.63290633  0.54870804     0.05200
H2772       H  0.66496442  0.64152477  0.51184894    -0.00600
H2773       H  0.67624235  0.65517681  0.55016299     0.00900
H2774       H  0.74716296  0.68062319  0.44971906     0.04500
H2775       H  0.74247174  0.65861768  0.44941323     0.06500
H2776       H  0.75328220  0.67282670  0.48749352     0.07300
C2777       C  0.72926099  0.62428969  0.70863401    -0.22300
C2778       C  0.74601223  0.63323150  0.72377123     0.09700
C2779       C  0.76084596  0.64169982  0.70154557     0.10100
C2780       C  0.75861652  0.64026835  0.66439315    -0.17200
C2781       C  0.74188696  0.63038215  0.64901106    -0.27600
C2782       C  0.72695558  0.62277633  0.67147180     0.18400
C2783       C  0.74762577  0.63256211  0.76292123     0.12400
C2784       C  0.77900007  0.65205994  0.71707252    -0.12000
H2785       H  0.77007151  0.64630362  0.64734910     0.12700
C2786       C  0.70858432  0.61316071  0.65676938    -0.22800
H2787       H  0.71795609  0.61805185  0.72608377     0.08300
C2788       C  0.74444812  0.64292035  0.78608357     0.04700
C2789       C  0.74475211  0.64071123  0.82307573    -0.20000
C2790       C  0.74838806  0.62852155  0.83744573    -0.12300
C2791       C  0.75216620  0.61855375  0.81400093     0.13400
C2792       C  0.75160313  0.62064822  0.77699488    -0.22800
C2793       C  0.74084933  0.65634491  0.77171561    -0.05800
H2794       H  0.74212112  0.64856835  0.84087216     0.14900
C2795       C  0.75625376  0.60531837  0.82746806    -0.16000
H2796       H  0.75402756  0.61276929  0.75880389     0.09200
H2797       H  0.70698030  0.62168318  0.63778513     0.07100
H2798       H  0.69868717  0.60932179  0.67824337     0.08300
H2799       H  0.70576673  0.60101078  0.64308300     0.07300
H2800       H  0.78167066  0.64342337  0.73333612     0.02200
H2801       H  0.78014928  0.66268306  0.73424490     0.02700
H2802       H  0.78914434  0.65807697  0.69591095     0.06200
H2803       H  0.73895664  0.66357342  0.79351975     0.05200
H2804       H  0.72881777  0.64988172  0.75512250    -0.00600
H2805       H  0.75205613  0.66594181  0.75510818     0.00900
H2806       H  0.75822232  0.59835068  0.80521742     0.04500
H2807       H  0.74526951  0.59540751  0.84410265     0.06500
H2808       H  0.76848817  0.61195231  0.84343693     0.07300
C2809       C  0.84323905  0.63159750  0.46575889    -0.22300
C2810       C  0.83840864  0.63211188  0.50108229     0.09700
C2811       C  0.84894652  0.63244748  0.52938063     0.10100
C2812       C  0.86367520  0.63140978  0.52173144    -0.17200
C2813       C  0.86799011  0.62989250  0.48642997    -0.27600
C2814       C  0.85796592  0.63058317  0.45799706     0.18400
C2815       C  0.82150022  0.63080173  0.50784125     0.12400
C2816       C  0.84454063  0.63375654  0.56761251    -0.12000
H2817       H  0.87146300  0.63111601  0.54348922     0.12700
C2818       C  0.86284528  0.63057944  0.41944936    -0.22800
H2819       H  0.83516297  0.63153610  0.44420026     0.08300
C2820       C  0.81940998  0.64518581  0.50389545     0.04700
C2821       C  0.80292569  0.64297820  0.51031496    -0.20000
C2822       C  0.78860134  0.62674091  0.52097986    -0.12300
C2823       C  0.79074536  0.61229181  0.52438346     0.13400
C2824       C  0.80714919  0.61453297  0.51766872    -0.22800
C2825       C  0.83462512  0.66284450  0.49340201    -0.05800
H2826       H  0.80128767  0.65401953  0.50759006     0.14900
C2827       C  0.77569870  0.59430403  0.53390274    -0.16000
H2828       H  0.80884219  0.60350731  0.52007994     0.09200
H2829       H  0.85435198  0.63255804  0.40104346     0.07100
H2830       H  0.86136350  0.61789679  0.41242520     0.08300
H2831       H  0.87658274  0.64133558  0.41487339     0.07300
H2832       H  0.83152784  0.62228786  0.57455012     0.02200
H2833       H  0.84429978  0.64586908  0.57130046     0.02700
H2834       H  0.85430338  0.63417725  0.58642925     0.06200
H2835       H  0.83086538  0.67277123  0.49210750     0.05200
H2836       H  0.83954094  0.66205033  0.46671003    -0.00600
H2837       H  0.84530919  0.66727582  0.51329890     0.00900
H2838       H  0.76474140  0.59023574  0.51484219     0.04500
H2839       H  0.77121122  0.59428774  0.56150639     0.06500
H2840       H  0.77949324  0.58439706  0.53278308     0.07300
C2841       C  0.68933454  0.45939234  0.19261280    -0.22300
C2842       C  0.67613221  0.44485400  0.21072079     0.09700
C2843       C  0.66374079  0.43012275  0.19122508     0.10100
C2844       C  0.66409173  0.43075384  0.15379141    -0.17200
C2845       C  0.67659129  0.44583595  0.13490999    -0.27600
C2846       C  0.69026593  0.45982517  0.15520056     0.18400
C2847       C  0.67584339  0.44519763  0.25022822     0.12400
C2848       C  0.65032224  0.41362989  0.21001739    -0.12000
H2849       H  0.65473177  0.41901891  0.13976357     0.12700
C2850       C  0.70638948  0.47532182  0.13921549    -0.22800
H2851       H  0.69930493  0.47038472  0.20794857     0.08300
C2852       C  0.68703443  0.44217132  0.27083134     0.04700
C2853       C  0.68642761  0.44286417  0.30819369    -0.20000
C2854       C  0.67497305  0.44674380  0.32604228    -0.12300
C2855       C  0.66333298  0.44929132  0.30453891     0.13400
C2856       C  0.66413341  0.44863125  0.26717943    -0.22800
C2857       C  0.69952201  0.43799929  0.25328906    -0.05800
H2858       H  0.69493610  0.44002636  0.32270379     0.14900
C2859       C  0.64968381  0.45268499  0.31904840    -0.16000
H2860       H  0.65543146  0.45076974  0.25096376     0.09200
H2861       H  0.71822696  0.47654283  0.15151875     0.07100
H2862       H  0.70638649  0.48743173  0.14485680     0.08300
H2863       H  0.70773086  0.47431274  0.11021965     0.07300
H2864       H  0.64192266  0.41629917  0.22719533     0.02200
H2865       H  0.65701991  0.40875031  0.22686066     0.02700
H2866       H  0.64173508  0.40314535  0.19084016     0.06200
H2867       H  0.70723598  0.43569160  0.27321183     0.05200
H2868       H  0.70884950  0.44904763  0.23607781    -0.00600
H2869       H  0.69209802  0.42604597  0.23667781     0.00900
H2870       H  0.65256898  0.46562866  0.30961548     0.04500
H2871       H  0.64870003  0.45256050  0.34836764     0.06500
H2872       H  0.63659715  0.44249406  0.30890228     0.07300
C2873       C  0.67839174  0.50182940  0.47746581    -0.22300
C2874       C  0.69347734  0.51666578  0.46442896     0.09700
C2875       C  0.70315496  0.51494061  0.43694980     0.10100
C2876       C  0.69713857  0.49844299  0.42214354    -0.17200
C2877       C  0.68191766  0.48337035  0.43477763    -0.27600
C2878       C  0.67247400  0.48517144  0.46317318     0.18400
C2879       C  0.69932446  0.53394428  0.48031765     0.12400
C2880       C  0.72003317  0.53048421  0.42366895    -0.12000
H2881       H  0.70457537  0.49734378  0.40067802     0.12700
C2882       C  0.65588299  0.47023474  0.47862790    -0.22800
H2883       H  0.67111789  0.50328499  0.49886728     0.08300
C2884       C  0.69566856  0.54575252  0.46387649     0.04700
C2885       C  0.70351456  0.56284718  0.47721785    -0.20000
C2886       C  0.71464819  0.56827098  0.50703445    -0.12300
C2887       C  0.71783443  0.55613183  0.52418605     0.13400
C2888       C  0.70996244  0.53908858  0.51067072    -0.22800
C2889       C  0.68345388  0.54026042  0.43237474    -0.05800
H2890       H  0.70091168  0.57202877  0.46435775     0.14900
C2891       C  0.73014614  0.56065175  0.55535376    -0.16000
H2892       H  0.71274871  0.52991945  0.52301500     0.09200
H2893       H  0.64513208  0.47276702  0.47532034     0.07100
H2894       H  0.65774807  0.46899746  0.50753322     0.08300
H2895       H  0.65174515  0.45767038  0.46583632     0.07300
H2896       H  0.72950905  0.53632544  0.44605861     0.02200
H2897       H  0.71762635  0.54045849  0.41262848     0.02700
H2898       H  0.72608672  0.52678928  0.40234371     0.06200
H2899       H  0.68186455  0.55103674  0.42294774     0.05200
H2900       H  0.67037182  0.52910283  0.44009515    -0.00600
H2901       H  0.68856266  0.53620932  0.40984706     0.00900
H2902       H  0.72268991  0.55279507  0.57895082     0.04500
H2903       H  0.73732167  0.57458831  0.56288694     0.06500
H2904       H  0.74017317  0.55745677  0.54846990     0.07300
C2905       C  0.73075540  0.46118087  0.47154753    -0.22300
C2906       C  0.72640694  0.44593836  0.49018475     0.09700
C2907       C  0.70901796  0.43149005  0.48905458     0.10100
C2908       C  0.69646146  0.43251823  0.46857967    -0.17200
C2909       C  0.70102322  0.44752034  0.44869624    -0.27600
C2910       C  0.71836983  0.46211546  0.45053204     0.18400
C2911       C  0.74055912  0.44509662  0.50875681     0.12400
C2912       C  0.70389470  0.41480038  0.50834891    -0.12000
H2913       H  0.68319349  0.42135564  0.46704164     0.12700
C2914       C  0.72438433  0.47882558  0.43046414    -0.22800
H2915       H  0.74408797  0.47228677  0.47259392     0.08300
C2916       C  0.75305035  0.44342584  0.48931335     0.04700
C2917       C  0.76625399  0.44274688  0.50770056    -0.20000
C2918       C  0.76712314  0.44321768  0.54525352    -0.12300
C2919       C  0.75453872  0.44482383  0.56470391     0.13400
C2920       C  0.74150434  0.44590652  0.54616766    -0.22800
C2921       C  0.75217087  0.44183161  0.44917744    -0.05800
H2922       H  0.77588004  0.44158679  0.49256472     0.14900
C2923       C  0.75426043  0.44465092  0.60482095    -0.16000
H2924       H  0.73184801  0.44717856  0.56090288     0.09200
H2925       H  0.73534310  0.48153798  0.41243223     0.07100
H2926       H  0.72898953  0.48980103  0.44968508     0.08300
H2927       H  0.71396955  0.47832919  0.41395592     0.07300
H2928       H  0.70601705  0.41731447  0.53747603     0.02200
H2929       H  0.71193576  0.40959070  0.49853792     0.02700
H2930       H  0.68989915  0.40465527  0.50401472     0.06200
H2931       H  0.76259381  0.43998007  0.43833703     0.05200
H2932       H  0.75380732  0.45383584  0.43705011    -0.00600
H2933       H  0.73932487  0.43040235  0.44106323     0.00900
H2934       H  0.76609662  0.45646616  0.61528370     0.04500
H2935       H  0.75362386  0.43270927  0.61468620     0.06500
H2936       H  0.74273638  0.44466087  0.61550746     0.07300
C2937       C  0.55256074  0.32110098  0.68691136    -0.22300
C2938       C  0.53744482  0.31574940  0.70690293     0.09700
C2939       C  0.52132560  0.30905102  0.68947577     0.10100
C2940       C  0.52071553  0.30843475  0.65215602    -0.17200
C2941       C  0.53596173  0.31472095  0.63115743    -0.27600
C2942       C  0.55208499  0.32040729  0.64942053     0.18400
C2943       C  0.53841185  0.31645018  0.74629381     0.12400
C2944       C  0.50463428  0.30235298  0.71042133    -0.12000
H2945       H  0.50800674  0.30268837  0.64028149     0.12700
C2946       C  0.56922149  0.32588320  0.63111654    -0.22800
H2947       H  0.56484515  0.32574654  0.70075247     0.08300
C2948       C  0.53760326  0.30281677  0.76606609     0.04700
C2949       C  0.53659580  0.30300690  0.80338170    -0.20000
C2950       C  0.53657204  0.31668503  0.82199904    -0.12300
C2951       C  0.53699983  0.33025520  0.80126603     0.13400
C2952       C  0.53822184  0.33000854  0.76395737    -0.22800
C2953       C  0.53748709  0.28785775  0.74759182    -0.05800
H2954       H  0.53547760  0.29201846  0.81721754     0.14900
C2955       C  0.53606873  0.34530672  0.81657738    -0.16000
H2956       H  0.53848546  0.34026948  0.74828580     0.09200
H2957       H  0.57419569  0.31766314  0.64098462     0.07100
H2958       H  0.57896636  0.33974189  0.63766622     0.08300
H2959       H  0.56844348  0.32459230  0.60179367     0.07300
H2960       H  0.50548993  0.31305629  0.72683041     0.02200
H2961       H  0.50253232  0.29156535  0.72822941     0.02700
H2962       H  0.49303590  0.29729241  0.69273626     0.06200
H2963       H  0.53663862  0.27809159  0.76689908     0.05200
H2964       H  0.54970423  0.29288460  0.73191922    -0.00600
H2965       H  0.52607372  0.28111644  0.72932993     0.00900
H2966       H  0.54835748  0.35779154  0.81025056     0.04500
H2967       H  0.53405731  0.34482710  0.84568514     0.06500
H2968       H  0.52495035  0.34549861  0.80418214     0.07300
C2969       C  0.57874801  0.37039629  0.47059830    -0.22300
C2970       C  0.59454644  0.37960741  0.48951758     0.09700
C2971       C  0.59484652  0.37575782  0.52582260     0.10100
C2972       C  0.58016777  0.36110642  0.54069114    -0.17200
C2973       C  0.56417065  0.35144534  0.52189899    -0.27600
C2974       C  0.56334919  0.35709991  0.48692977     0.18400
C2975       C  0.61043914  0.39366014  0.47135305     0.12400
C2976       C  0.61014926  0.38770345  0.54961966    -0.12000
H2977       H  0.58141388  0.35740733  0.56744563     0.12700
C2978       C  0.54651385  0.35062135  0.46694417    -0.22800
H2979       H  0.57826797  0.37411171  0.44328988     0.08300
C2980       C  0.62508161  0.39213324  0.46486155     0.04700
C2981       C  0.64027541  0.40632291  0.45006261    -0.20000
C2982       C  0.64065459  0.42134087  0.43873613    -0.12300
C2983       C  0.62533872  0.42206287  0.44169623     0.13400
C2984       C  0.61066668  0.40851670  0.45929160    -0.22800
C2985       C  0.62423413  0.37510889  0.47061330    -0.05800
H2986       H  0.65161691  0.40531488  0.44539164     0.14900
C2987       C  0.62369619  0.43644135  0.42543442    -0.16000
H2988       H  0.59913589  0.40932596  0.46277721     0.09200
H2989       H  0.54570338  0.34238541  0.44402664     0.07100
H2990       H  0.54601037  0.36191407  0.45665509     0.08300
H2991       H  0.53497161  0.34333811  0.48434579     0.07300
H2992       H  0.61199798  0.40090760  0.54963064     0.02200
H2993       H  0.62241593  0.38889365  0.54038855     0.02700
H2994       H  0.60790052  0.38298152  0.57764234     0.06200
H2995       H  0.63662786  0.37608129  0.46269316     0.05200
H2996       H  0.61353097  0.36475713  0.45408010    -0.00600
H2997       H  0.62170769  0.37098996  0.49888398     0.00900
H2998       H  0.61293329  0.43075131  0.40551366     0.04500
H2999       H  0.63576197  0.44643745  0.41162317     0.06500
H3000       H  0.62052296  0.44299954  0.44658415     0.07300
C3001       C  0.53971498  0.17938136  0.26891887    -0.22300
C3002       C  0.55149626  0.19549708  0.25286959     0.09700
C3003       C  0.56248224  0.21000228  0.27506840     0.10100
C3004       C  0.56068393  0.20815276  0.31238481    -0.17200
C3005       C  0.54911998  0.19194824  0.32814902    -0.27600
C3006       C  0.53924021  0.17716834  0.30604653     0.18400
C3007       C  0.55243311  0.19659388  0.21300369     0.12400
C3008       C  0.57672265  0.22717863  0.25983997    -0.12000
H3009       H  0.56881439  0.21928687  0.32945500     0.12700
C3010       C  0.52880764  0.15879579  0.32030174    -0.22800
H3011       H  0.53114445  0.16823195  0.25228959     0.08300
C3012       C  0.55621315  0.18585804  0.19221956     0.04700
C3013       C  0.55632339  0.18702947  0.15486706    -0.20000
C3014       C  0.55424615  0.19963309  0.13704926    -0.12300
C3015       C  0.55099982  0.21073480  0.15815366     0.13400
C3016       C  0.54946679  0.20857825  0.19551247    -0.22800
C3017       C  0.56110354  0.17376561  0.20902470    -0.05800
H3018       H  0.55853721  0.17818036  0.13942881     0.14900
C3019       C  0.55008077  0.22551382  0.14238643    -0.16000
H3020       H  0.54615999  0.21653071  0.21131179     0.09200
H3021       H  0.53415134  0.15109673  0.30921009     0.07100
H3022       H  0.51496078  0.15253942  0.31172296     0.08300
H3023       H  0.52925908  0.15819967  0.34981612     0.07300
H3024       H  0.57105923  0.23346712  0.24424340     0.02200
H3025       H  0.58539284  0.22498826  0.24240888     0.02700
H3026       H  0.58493479  0.23648120  0.28120845     0.06200
H3027       H  0.56542390  0.16781155  0.18871286     0.05200
H3028       H  0.54980419  0.16288649  0.22314195    -0.00600
H3029       H  0.57207673  0.18118436  0.22805981     0.00900
H3030       H  0.53782201  0.22028793  0.12698286     0.04500
H3031       H  0.56181887  0.23362657  0.12560805     0.06500
H3032       H  0.54989805  0.23416926  0.16333755     0.07300
C3033       C  0.53668824  0.27241267  0.46142988    -0.22300
C3034       C  0.54710911  0.26683991  0.47651623     0.09700
C3035       C  0.55648845  0.27483064  0.50802658     0.10100
C3036       C  0.55455306  0.28773274  0.52461555    -0.17200
C3037       C  0.54320313  0.29277353  0.51094050    -0.27600
C3038       C  0.53462454  0.28528351  0.47775065     0.18400
C3039       C  0.54744834  0.25218502  0.45921627     0.12400
C3040       C  0.56811877  0.26936154  0.52472466    -0.12000
H3041       H  0.56179276  0.29369899  0.54894284     0.12700
C3042       C  0.52298984  0.29007426  0.45868733    -0.22800
H3043       H  0.52990510  0.26638618  0.43666936     0.08300
C3044       C  0.53320083  0.23480074  0.46243988     0.04700
C3045       C  0.53401401  0.22131030  0.44563463    -0.20000
C3046       C  0.54887856  0.22474887  0.42638639    -0.12300
C3047       C  0.56296500  0.24219378  0.42243128     0.13400
C3048       C  0.56202942  0.25572473  0.43877323    -0.22800
C3049       C  0.51743624  0.23040041  0.48474473    -0.05800
H3050       H  0.52335275  0.20793424  0.44901703     0.14900
C3051       C  0.57911691  0.24694316  0.40118164    -0.16000
H3052       H  0.57281824  0.26911250  0.43586235     0.09200
H3053       H  0.51562452  0.28090164  0.43648872     0.07100
H3054       H  0.53100799  0.30311932  0.44622009     0.08300
H3055       H  0.51314886  0.28952130  0.47708505     0.07300
H3056       H  0.57874070  0.27187831  0.50590443     0.02200
H3057       H  0.56031656  0.25521398  0.53116068     0.02700
H3058       H  0.57425294  0.27666512  0.54978123     0.06200
H3059       H  0.50773601  0.21611576  0.48524427     0.05200
H3060       H  0.51087079  0.23692907  0.47370524    -0.00600
H3061       H  0.52157208  0.23486267  0.51264850     0.00900
H3062       H  0.58086647  0.25618283  0.37962604     0.04500
H3063       H  0.57843968  0.23548394  0.38843891     0.06500
H3064       H  0.59074087  0.25332479  0.41895535     0.07300
C3065       C  0.32772608  0.29619634  0.46697925    -0.22300
C3066       C  0.31373116  0.28850622  0.49104977     0.09700
C3067       C  0.30873769  0.27224135  0.50651822     0.10100
C3068       C  0.31810602  0.26415519  0.49785531    -0.17200
C3069       C  0.33238556  0.27204107  0.47416435    -0.27600
C3070       C  0.33710763  0.28824043  0.45827529     0.18400
C3071       C  0.30417060  0.29760335  0.49763737     0.12400
C3072       C  0.29368167  0.26356453  0.53233843    -0.12000
H3073       H  0.31435813  0.25171281  0.50982946     0.12700
C3074       C  0.35155188  0.29698147  0.43096505    -0.22800
H3075       H  0.33121167  0.30850005  0.45462427     0.08300
C3076       C  0.31185319  0.31339949  0.51708488     0.04700
C3077       C  0.30422130  0.32359796  0.51588053    -0.20000
C3078       C  0.28888769  0.31821021  0.49616216    -0.12300
C3079       C  0.28048996  0.30167354  0.47896890     0.13400
C3080       C  0.28832683  0.29167115  0.47977372    -0.22800
C3081       C  0.32824038  0.31957277  0.53865622    -0.05800
H3082       H  0.31055399  0.33609239  0.52952592     0.14900
C3083       C  0.26387666  0.29489749  0.45777692    -0.16000
H3084       H  0.28253876  0.27955248  0.46483206     0.09200
H3085       H  0.36434125  0.30107774  0.44346831     0.07100
H3086       H  0.35255080  0.30887436  0.41967329     0.08300
H3087       H  0.34898100  0.28785248  0.40850919     0.07300
H3088       H  0.28143864  0.26070772  0.51892869     0.02200
H3089       H  0.29627914  0.27234399  0.55546666     0.02700
H3090       H  0.29169060  0.25106690  0.54253734     0.06200
H3091       H  0.33229759  0.33194759  0.55300593     0.05200
H3092       H  0.33915726  0.32187772  0.52095801    -0.00600
H3093       H  0.32588709  0.30951050  0.55877203     0.00900
H3094       H  0.26600961  0.30413364  0.43591133     0.04500
H3095       H  0.25323840  0.29326347  0.47558241     0.06500
H3096       H  0.25946944  0.28199092  0.44546447     0.07300
C3097       C  0.35460870  0.23880522  0.20093141    -0.22300
C3098       C  0.35752634  0.25356794  0.21975597     0.09700
C3099       C  0.36183671  0.26890403  0.20102344     0.10100
C3100       C  0.36338606  0.26919972  0.16375237    -0.17200
C3101       C  0.36073495  0.25453005  0.14485729    -0.27600
C3102       C  0.35626625  0.23907617  0.16366464     0.18400
C3103       C  0.35724774  0.25306210  0.25924178     0.12400
C3104       C  0.36478862  0.28492829  0.22035433    -0.12000
H3105       H  0.36678459  0.28098777  0.14924359     0.12700
C3106       C  0.35410316  0.22297174  0.14600214    -0.22800
H3107       H  0.35157928  0.22715926  0.21558896     0.08300
C3108       C  0.34148242  0.24422178  0.27868182     0.04700
C3109       C  0.34208659  0.24395468  0.31615832    -0.20000
C3110       C  0.35812647  0.25233666  0.33459383    -0.12300
C3111       C  0.37395912  0.26114232  0.31473742     0.13400
C3112       C  0.37324037  0.26134647  0.27736924    -0.22800
C3113       C  0.32407459  0.23519234  0.25983409    -0.05800
H3114       H  0.32996188  0.23715594  0.33109920     0.14900
C3115       C  0.39172860  0.26993643  0.33227275    -0.16000
H3116       H  0.38526152  0.26791498  0.26200981     0.09200
H3117       H  0.34054357  0.21179372  0.15022808     0.07100
H3118       H  0.36335084  0.21979695  0.15823454     0.08300
H3119       H  0.35678909  0.22443454  0.11700422     0.07300
H3120       H  0.37608649  0.28983179  0.23879976     0.02200
H3121       H  0.35291849  0.28165449  0.23589108     0.02700
H3122       H  0.36759928  0.29562142  0.20153099     0.06200
H3123       H  0.31300071  0.22916786  0.27901185     0.05200
H3124       H  0.32294025  0.22469772  0.24227536    -0.00600
H3125       H  0.32291356  0.24478300  0.24337735     0.00900
H3126       H  0.40248154  0.27539901  0.31233146     0.04500
H3127       H  0.39290296  0.26034362  0.34870021     0.06500
H3128       H  0.39367558  0.28094857  0.34921887     0.07300
C3129       C  0.43725761  0.28990890  0.51162354    -0.22300
C3130       C  0.44806663  0.28826723  0.48699117     0.09700
C3131       C  0.44089255  0.27914563  0.45482859     0.10100
C3132       C  0.42302417  0.27178911  0.44799383    -0.17200
C3133       C  0.41192545  0.27298263  0.47285045    -0.27600
C3134       C  0.41924748  0.28233635  0.50511371     0.18400
C3135       C  0.46650308  0.29480273  0.49673434     0.12400
C3136       C  0.45209556  0.27703570  0.42783820    -0.12000
H3137       H  0.41767203  0.26478203  0.42314546     0.12700
C3138       C  0.40828984  0.28419898  0.53312402    -0.22800
H3139       H  0.44290254  0.29679840  0.53646614     0.08300
C3140       C  0.47987854  0.31255360  0.49358001     0.04700
C3141       C  0.49698082  0.31796807  0.50462302    -0.20000
C3142       C  0.50096146  0.30596173  0.51837559    -0.12300
C3143       C  0.48748693  0.28807371  0.52074265     0.13400
C3144       C  0.47050794  0.28278815  0.50987775    -0.22800
C3145       C  0.47599567  0.32575505  0.47917249    -0.05800
H3146       H  0.50698072  0.33171986  0.50432074     0.14900
C3147       C  0.49037580  0.27417454  0.53536299    -0.16000
H3148       H  0.46018644  0.26915322  0.51218906     0.09200
H3149       H  0.41624573  0.29185875  0.55651536     0.07100
H3150       H  0.39801103  0.27110355  0.54290979     0.08300
H3151       H  0.40216040  0.29109815  0.52174314     0.07300
H3152       H  0.45759946  0.26967275  0.43981972     0.02200
H3153       H  0.46297422  0.29008583  0.41922653     0.02700
H3154       H  0.44449421  0.26978750  0.40378253     0.06200
H3155       H  0.48792776  0.33905348  0.47821974     0.05200
H3156       H  0.46621883  0.32624380  0.49643737    -0.00600
H3157       H  0.47068741  0.32201852  0.45165862     0.00900
H3158       H  0.48231796  0.26838220  0.55973324     0.04500
H3159       H  0.50417597  0.27913917  0.54227055     0.06500
H3160       H  0.48637307  0.26373080  0.51506112     0.07300
C3161       C  0.34680813  0.01223382  0.52990053    -0.22300
C3162       C  0.32964614  0.00363143  0.51675815     0.09700
C3163       C  0.32244668  0.01363263  0.50630835     0.10100
C3164       C  0.33239535  0.03191590  0.51039684    -0.17200
C3165       C  0.34952008  0.04058493  0.52422374    -0.27600
C3166       C  0.35693414  0.03051226  0.53331994     0.18400
C3167       C  0.31912962  0.98414574  0.51737440     0.12400
C3168       C  0.30434998  0.00508256  0.49048852    -0.12000
H3169       H  0.32666612  0.03946810  0.50297976     0.12700
C3170       C  0.37528914  0.03868464  0.54766442    -0.22800
H3171       H  0.35217270  0.00449986  0.53847690     0.08300
C3172       C  0.32354390  0.97389434  0.49651545     0.04700
C3173       C  0.31436738  0.95567520  0.50152426    -0.20000
C3174       C  0.30081042  0.94741249  0.52668408    -0.12300
C3175       C  0.29620792  0.95768361  0.54709360     0.13400
C3176       C  0.30539605  0.97583905  0.54203600    -0.22800
C3177       C  0.33785967  0.98210424  0.46891429    -0.05800
H3178       H  0.31794324  0.94783240  0.48602346     0.14900
C3179       C  0.28251325  0.95032790  0.57607245    -0.16000
H3180       H  0.30229493  0.98371173  0.55871595     0.09200
H3181       H  0.38481325  0.04779449  0.52760133     0.07100
H3182       H  0.37871005  0.02874809  0.55357125     0.08300
H3183       H  0.37661291  0.04578251  0.57288417     0.07300
H3184       H  0.29443211  0.99621660  0.51019324     0.02200
H3185       H  0.30355602  0.99748594  0.46640438     0.02700
H3186       H  0.30103588  0.01487312  0.48244842     0.06200
H3187       H  0.33904004  0.97211254  0.45392936     0.05200
H3188       H  0.35064869  0.99103592  0.48184178    -0.00600
H3189       H  0.33497660  0.98955910  0.44947810     0.00900
H3190       H  0.28857604  0.95691875  0.60177202     0.04500
H3191       H  0.27644314  0.93615430  0.58030892     0.06500
H3192       H  0.27199029  0.95282119  0.56935599     0.07300
C3193       C  0.38481467  0.10640382  0.71577146    -0.22300
C3194       C  0.37437478  0.09018843  0.73241701     0.09700
C3195       C  0.36409669  0.07509208  0.71156876     0.10100
C3196       C  0.36436707  0.07658636  0.67427876    -0.17200
C3197       C  0.37496979  0.09277199  0.65743693    -0.27600
C3198       C  0.38535386  0.10790628  0.67845484     0.18400
C3199       C  0.37413789  0.08949365  0.77184217     0.12400
C3200       C  0.35311248  0.05740865  0.72866424    -0.12000
H3201       H  0.35651109  0.06499761  0.65814343     0.12700
C3202       C  0.39657329  0.12572521  0.66193798    -0.22800
H3203       H  0.39254719  0.11792835  0.73216086     0.08300
C3204       C  0.38791119  0.09022126  0.79128309     0.04700
C3205       C  0.38761901  0.09067219  0.82868398    -0.20000
C3206       C  0.37385852  0.09042474  0.84716499    -0.12300
C3207       C  0.35971732  0.08909027  0.82739620     0.13400
C3208       C  0.36012899  0.08871165  0.78995863    -0.22800
C3209       C  0.40286476  0.09045428  0.77253031    -0.05800
H3210       H  0.39838331  0.09150388  0.84350020     0.14900
C3211       C  0.34406967  0.08792316  0.84512820    -0.16000
H3212       H  0.34956490  0.08802121  0.77458905     0.09200
H3213       H  0.40707689  0.12612777  0.64559379     0.07100
H3214       H  0.40297486  0.13612519  0.68254367     0.08300
H3215       H  0.38839248  0.12875284  0.64491853     0.07300
H3216       H  0.34320161  0.05732481  0.74648567     0.02200
H3217       H  0.36160967  0.05437220  0.74455581     0.02700
H3218       H  0.34612038  0.04692880  0.70842077     0.06200
H3219       H  0.41240506  0.09072274  0.79176584     0.05200
H3220       H  0.40991178  0.10220915  0.75535296    -0.00600
H3221       H  0.39775055  0.07857022  0.75571195     0.00900
H3222       H  0.33406186  0.08617897  0.82535012     0.04500
H3223       H  0.34814734  0.10012546  0.86013739     0.06500
H3224       H  0.33779554  0.07654392  0.86346526     0.07300
C3225       C  0.45250429  0.12651977  0.48584475    -0.22300
C3226       C  0.45661104  0.14185210  0.46785888     0.09700
C3227       C  0.44354397  0.14581123  0.46250523     0.10100
C3228       C  0.42667477  0.13443852  0.47603387    -0.17200
C3229       C  0.42267741  0.11933814  0.49506641    -0.27600
C3230       C  0.43569633  0.11513343  0.49938577     0.18400
C3231       C  0.47468260  0.15325202  0.45448129     0.12400
C3232       C  0.44754652  0.16227890  0.44364344    -0.12000
H3233       H  0.41673042  0.13770286  0.47292199     0.12700
C3234       C  0.43234264  0.09860062  0.51704784    -0.22800
H3235       H  0.46252855  0.12337089  0.48917912     0.08300
C3236       C  0.48878710  0.16309005  0.47802377     0.04700
C3237       C  0.50591974  0.17156842  0.46478893    -0.20000
C3238       C  0.50932141  0.17089745  0.42835390    -0.12300
C3239       C  0.49501141  0.16221560  0.40439260     0.13400
C3240       C  0.47790838  0.15317655  0.41794798    -0.22800
C3241       C  0.48575180  0.16470559  0.51702892    -0.05800
H3242       H  0.51679088  0.17875659  0.48306439     0.14900
C3243       C  0.49700059  0.16165848  0.36470408    -0.16000
H3244       H  0.46698004  0.14573943  0.39990635     0.09200
H3245       H  0.44039008  0.10193577  0.54164509     0.07100
H3246       H  0.43610523  0.09148541  0.49849431     0.08300
H3247       H  0.41844805  0.08947354  0.52404452     0.07300
H3248       H  0.45170267  0.16218323  0.41578566     0.02200
H3249       H  0.45820358  0.17381841  0.45789751     0.02700
H3250       H  0.43594656  0.16360525  0.44266847     0.06200
H3251       H  0.49822105  0.17335426  0.53142368     0.05200
H3252       H  0.47917631  0.15168560  0.52995399    -0.00600
H3253       H  0.47739744  0.17034403  0.51981274     0.00900
H3254       H  0.49165839  0.14795779  0.35603294     0.04500
H3255       H  0.51067425  0.16966461  0.35599657     0.06500
H3256       H  0.48964413  0.16678883  0.35109377     0.07300
C3257       C  0.34056356  0.13773981  0.49517567    -0.22300
C3258       C  0.35090494  0.15455820  0.50969318     0.09700
C3259       C  0.36471650  0.15813042  0.53305774     0.10100
C3260       C  0.36812714  0.14494763  0.54067112    -0.17200
C3261       C  0.35831259  0.12825856  0.52502925    -0.27600
C3262       C  0.34418049  0.12458257  0.50217350     0.18400
C3263       C  0.34843182  0.16879557  0.49714916     0.12400
C3264       C  0.37633268  0.17606452  0.54893264    -0.12000
H3265       H  0.37893935  0.14793021  0.55822554     0.12700
C3266       C  0.33289726  0.10697149  0.48482470    -0.22800
H3267       H  0.32996787  0.13510072  0.47728800     0.08300
C3268       C  0.35403687  0.17603844  0.46280210     0.04700
C3269       C  0.35355581  0.19082216  0.45322437    -0.20000
C3270       C  0.34801204  0.19894118  0.47733152    -0.12300
C3271       C  0.34178568  0.19129410  0.51139293     0.13400
C3272       C  0.34192881  0.17620312  0.52070638    -0.22800
C3273       C  0.36132160  0.16868576  0.43671288    -0.05800
H3274       H  0.35834519  0.19654526  0.42711197     0.14900
C3275       C  0.33501127  0.19888344  0.53804669    -0.16000
H3276       H  0.33751460  0.17048257  0.54694309     0.09200
H3277       H  0.34090456  0.10428942  0.46644395     0.07100
H3278       H  0.32216038  0.10632833  0.46886436     0.08300
H3279       H  0.32687138  0.09667164  0.50561136     0.07300
H3280       H  0.36848739  0.17948826  0.56605282     0.02200
H3281       H  0.38258553  0.18586550  0.52726389     0.02700
H3282       H  0.38687033  0.17676208  0.56570594     0.06200
H3283       H  0.36571338  0.17632752  0.41154576     0.05200
H3284       H  0.35114410  0.15504261  0.42973333    -0.00600
H3285       H  0.37274034  0.16892986  0.44872769     0.00900
H3286       H  0.32982314  0.19067244  0.56238593     0.04500
H3287       H  0.32424189  0.19978530  0.52592502     0.06500
H3288       H  0.34571785  0.21204504  0.54655999     0.07300
C3289       C  0.99078393  0.30643189  0.54149606    -0.22300
C3290       C  0.99815649  0.29867987  0.52170442     0.09700
C3291       C  0.98700334  0.28240762  0.50501319     0.10100
C3292       C  0.96872484  0.27409887  0.50918114    -0.17200
C3293       C  0.96124928  0.28171788  0.52952090    -0.27600
C3294       C  0.97257647  0.29826821  0.54565306     0.18400
C3295       C  0.01759369  0.30732720  0.52155742     0.12400
C3296       C  0.99441091  0.27388271  0.48268071    -0.12000
H3297       H  0.96024633  0.26151810  0.49666513     0.12700
C3298       C  0.96579747  0.30725390  0.56851529    -0.22800
H3299       H  0.99944005  0.31883856  0.55456634     0.08300
C3300       C  0.02852988  0.32286987  0.50237661     0.04700
C3301       C  0.04681521  0.33166496  0.50686800    -0.20000
C3302       C  0.05449347  0.32524137  0.52991843    -0.12300
C3303       C  0.04344260  0.30952929  0.54890868     0.13400
C3304       C  0.02522434  0.30074756  0.54408864    -0.22800
C3305       C  0.02089060  0.33010913  0.47708291    -0.05800
H3306       H  0.05517871  0.34369917  0.49244026     0.14900
C3307       C  0.05004420  0.30206862  0.57627071    -0.16000
H3308       H  0.01680189  0.28900482  0.55933803     0.09200
H3309       H  0.95746496  0.31036470  0.55226473     0.07100
H3310       H  0.97658020  0.31974300  0.57979531     0.08300
H3311       H  0.95817028  0.29872077  0.59126317     0.07300
H3312       H  0.00287989  0.27111440  0.49933405     0.02200
H3313       H  0.00228331  0.28273010  0.46050611     0.02700
H3314       H  0.98393058  0.26135773  0.47092767     0.06200
H3315       H  0.03124283  0.34213458  0.46361104     0.05200
H3316       H  0.01230032  0.33341749  0.49183186    -0.00600
H3317       H  0.01310239  0.32023761  0.45622881     0.00900
H3318       H  0.04346727  0.30073914  0.60222641     0.04500
H3319       H  0.06425307  0.31022635  0.58124558     0.06500
H3320       H  0.04689114  0.28894038  0.56746172     0.07300
C3321       C  0.89815920  0.25169885  0.72027371    -0.22300
C3322       C  0.91298141  0.25318187  0.73612203     0.09700
C3323       C  0.92616663  0.25383352  0.71451414     0.10100
C3324       C  0.92436101  0.25337880  0.67726332    -0.17200
C3325       C  0.90968051  0.25226319  0.66128897    -0.27600
C3326       C  0.89617296  0.25098805  0.68313874     0.18400
C3327       C  0.91392050  0.25330503  0.77549812     0.12400
C3328       C  0.94226182  0.25536967  0.73069378    -0.12000
H3329       H  0.93463000  0.25425354  0.66049536     0.12700
C3330       C  0.87914186  0.24804643  0.66874324    -0.22800
H3331       H  0.88785443  0.25070943  0.73714026     0.08300
C3332       C  0.91666139  0.26777474  0.79565651     0.04700
C3333       C  0.91597881  0.26666934  0.83298161    -0.20000
C3334       C  0.91270357  0.25146774  0.85064311    -0.12300
C3335       C  0.91035959  0.23710064  0.83026511     0.13400
C3336       C  0.91091452  0.23821818  0.79289816    -0.22800
C3337       C  0.92038099  0.28439192  0.77783345    -0.05800
H3338       H  0.91793103  0.27774643  0.84844278     0.14900
C3339       C  0.90667048  0.22033717  0.84732934    -0.16000
H3340       H  0.90863822  0.22712691  0.77703026     0.09200
H3341       H  0.87813015  0.25954534  0.67498412     0.07100
H3342       H  0.86805900  0.23634559  0.68168810     0.08300
H3343       H  0.87749952  0.24558592  0.63965739     0.07300
H3344       H  0.93854006  0.24376109  0.74742224     0.02200
H3345       H  0.94917343  0.26731416  0.74748523     0.02700
H3346       H  0.95149009  0.25622437  0.70988073     0.06200
H3347       H  0.92268510  0.29458364  0.79766045     0.05200
H3348       H  0.90912244  0.28181976  0.76096066    -0.00600
H3349       H  0.93224349  0.28961370  0.76090011     0.00900
H3350       H  0.89464540  0.21474291  0.86387303     0.04500
H3351       H  0.91793520  0.22286182  0.86415631     0.06500
H3352       H  0.90459809  0.21038844  0.82708516     0.07300
C3353       C  0.70451947  0.96430178  0.47555895    -0.22300
C3354       C  0.69557775  0.97182131  0.48992672     0.09700
C3355       C  0.67828444  0.96091388  0.50220562     0.10100
C3356       C  0.67002687  0.94274475  0.49832276    -0.17200
C3357       C  0.67859291  0.93512862  0.48232904    -0.27600
C3358       C  0.69626000  0.94610097  0.47126477     0.18400
C3359       C  0.70368202  0.99105048  0.48782163     0.12400
C3360       C  0.66842275  0.96850349  0.51869740    -0.12000
H3361       H  0.65655166  0.93442508  0.50685226     0.12700
C3362       C  0.70657435  0.93951934  0.45258051    -0.22800
H3363       H  0.71777192  0.97277197  0.46588314     0.08300
C3364       C  0.71560372  0.00260162  0.51364139     0.04700
C3365       C  0.72252271  0.02067692  0.51028553    -0.20000
C3366       C  0.71763339  0.02739341  0.48180591    -0.12300
C3367       C  0.70588716  0.01571030  0.45559440     0.13400
C3368       C  0.69907891  0.99773655  0.45905306    -0.22800
C3369       C  0.72090494  0.99580036  0.54468992    -0.05800
H3370       H  0.73168930  0.02958097  0.53007944     0.14900
C3371       C  0.70095484  0.02205995  0.42306712    -0.16000
H3372       H  0.69006700  0.98875982  0.43912500     0.09200
H3373       H  0.71828111  0.94285630  0.46877989     0.07100
H3374       H  0.71097500  0.94596101  0.42613897     0.08300
H3375       H  0.69916046  0.92530557  0.44769957     0.07300
H3376       H  0.66707339  0.97694698  0.49907346     0.02200
H3377       H  0.67561472  0.97641538  0.54248684     0.02700
H3378       H  0.65509227  0.95815198  0.52730523     0.06200
H3379       H  0.73023258  0.00652209  0.56264571     0.05200
H3380       H  0.72730261  0.98888931  0.53472522    -0.00600
H3381       H  0.70916198  0.98657328  0.56049419     0.00900
H3382       H  0.69257198  0.01120710  0.40441110     0.04500
H3383       H  0.71293388  0.03168633  0.40833536     0.06500
H3384       H  0.69349513  0.02816747  0.43114623     0.07300
C3385       C  0.74570295  0.06679966  0.29647308    -0.22300
C3386       C  0.73916043  0.07552537  0.27748109     0.09700
C3387       C  0.73297647  0.08482288  0.29607253     0.10100
C3388       C  0.73399001  0.08565488  0.33345383    -0.17200
C3389       C  0.74086160  0.07721625  0.35286750    -0.27600
C3390       C  0.74651029  0.06735728  0.33395925     0.18400
C3391       C  0.73914744  0.07496021  0.23800203     0.12400
C3392       C  0.72533474  0.09387148  0.27639362    -0.12000
H3393       H  0.72936527  0.09299055  0.34753449     0.12700
C3394       C  0.75321459  0.05720777  0.35268086    -0.22800
H3395       H  0.75022956  0.05953674  0.28176113     0.08300
C3396       C  0.75386927  0.08722308  0.21817470     0.04700
C3397       C  0.75319769  0.08639317  0.18077395    -0.20000
C3398       C  0.73817487  0.07351605  0.16274397    -0.12300
C3399       C  0.72370007  0.06071570  0.18280129     0.13400
C3400       C  0.72428473  0.06182601  0.22023271    -0.22800
C3401       C  0.77020942  0.10124442  0.23653349    -0.05800
H3402       H  0.76436447  0.09608109  0.16549225     0.14900
C3403       C  0.70782337  0.04525953  0.16607812    -0.16000
H3404       H  0.71317957  0.05219879  0.23573442     0.09200
H3405       H  0.76519818  0.06623624  0.36809082     0.07100
H3406       H  0.75665538  0.05005279  0.33350675     0.08300
H3407       H  0.74298237  0.04740252  0.37081048     0.07300
H3408       H  0.71378752  0.08415573  0.26066248     0.02200
H3409       H  0.73525686  0.10382685  0.25802877     0.02700
H3410       H  0.72104640  0.10052969  0.29498083     0.06200
H3411       H  0.78050538  0.10981194  0.21705106     0.05200
H3412       H  0.77554435  0.09515300  0.25391070    -0.00600
H3413       H  0.76713638  0.10952022  0.25312456     0.00900
H3414       H  0.70580883  0.03302870  0.17792569     0.04500
H3415       H  0.70902806  0.04424815  0.13690421     0.06500
H3416       H  0.69609630  0.04600671  0.17155802     0.07300
C3417       C  0.85514822  0.17408025  0.50037364    -0.22300
C3418       C  0.83938384  0.16793880  0.51872568     0.09700
C3419       C  0.83830546  0.17850278  0.54513736     0.10100
C3420       C  0.85284836  0.19528020  0.55163496    -0.17200
C3421       C  0.86849680  0.20194499  0.53207735    -0.27600
C3422       C  0.86971410  0.19095459  0.50652744     0.18400
C3423       C  0.82353371  0.15147718  0.50673081     0.12400
C3424       C  0.82158966  0.17226274  0.56559745    -0.12000
H3425       H  0.85174755  0.20341893  0.57153124     0.12700
C3426       C  0.88607963  0.19686913  0.48507927    -0.22800
H3427       H  0.85579417  0.16584130  0.48006232     0.08300
C3428       C  0.81382320  0.15151532  0.47725559     0.04700
C3429       C  0.79813517  0.13618738  0.46808695    -0.20000
C3430       C  0.79163058  0.12071120  0.48790508    -0.12300
C3431       C  0.80177996  0.12053121  0.51681131     0.13400
C3432       C  0.81762013  0.13596520  0.52581157    -0.22800
C3433       C  0.81976284  0.16794359  0.45609394    -0.05800
H3434       H  0.79063766  0.13652459  0.44578941     0.14900
C3435       C  0.79607364  0.10432848  0.53855001    -0.16000
H3436       H  0.82525378  0.13607088  0.54831768     0.09200
H3437       H  0.88470941  0.18641667  0.46702213     0.07100
H3438       H  0.89723964  0.20051544  0.50329129     0.08300
H3439       H  0.88894449  0.20819822  0.46819943     0.07300
H3440       H  0.81806767  0.16020750  0.58055568     0.02200
H3441       H  0.81083846  0.16941189  0.54682835     0.02700
H3442       H  0.82288058  0.18219553  0.58507761     0.06200
H3443       H  0.81051546  0.16579374  0.43416948     0.05200
H3444       H  0.83275663  0.17252471  0.44402136    -0.00600
H3445       H  0.82072873  0.17829556  0.47389061     0.00900
H3446       H  0.80590371  0.10652154  0.55919299     0.04500
H3447       H  0.79432612  0.09361474  0.52084388     0.06500
H3448       H  0.78362829  0.10031883  0.55254828     0.07300
C3449       C  0.81004124  0.30827604  0.20809312    -0.22300
C3450       C  0.79761306  0.31041419  0.22617646     0.09700
C3451       C  0.78674755  0.31430771  0.20624304     0.10100
C3452       C  0.78887885  0.31640852  0.16892905    -0.17200
C3453       C  0.80173785  0.31488554  0.15080472    -0.27600
C3454       C  0.81225905  0.31043214  0.17076972     0.18400
C3455       C  0.79793092  0.31091950  0.26610543     0.12400
C3456       C  0.77339819  0.31698936  0.22450084    -0.12000
H3457       H  0.78077891  0.31978389  0.15386331     0.12700
C3458       C  0.82663267  0.30904362  0.15356411    -0.22800
H3459       H  0.81851383  0.30553214  0.22355296     0.08300
C3460       C  0.78675945  0.29627166  0.28748828     0.04700
C3461       C  0.78767808  0.29790266  0.32509526    -0.20000
C3462       C  0.79993418  0.31368838  0.34197110    -0.12300
C3463       C  0.81205009  0.32791539  0.32016607     0.13400
C3464       C  0.81043674  0.32648428  0.28281506    -0.22800
C3465       C  0.77413620  0.27887375  0.27066191    -0.05800
H3466       H  0.77868105  0.28681209  0.34135167     0.14900
C3467       C  0.82755356  0.34449958  0.33472539    -0.16000
H3468       H  0.81946280  0.33752412  0.26640050     0.09200
H3469       H  0.82107038  0.29785705  0.13481032     0.07100
H3470       H  0.83439790  0.30688116  0.17362642     0.08300
H3471       H  0.83568911  0.32130585  0.13918507     0.07300
H3472       H  0.78000877  0.32794350  0.24385536     0.02200
H3473       H  0.76376458  0.30496210  0.23893078     0.02700
H3474       H  0.76612380  0.32014959  0.20509417     0.06200
H3475       H  0.76651863  0.26872122  0.29110849     0.05200
H3476       H  0.78147070  0.27451150  0.25435714    -0.00600
H3477       H  0.76478214  0.27994361  0.25322868     0.00900
H3478       H  0.83966281  0.34695756  0.32126971     0.04500
H3479       H  0.82970660  0.34393071  0.36358363     0.06500
H3480       H  0.82590281  0.35567653  0.32937471     0.07300
C3481       C  0.79251058  0.38459893  0.53963331    -0.22300
C3482       C  0.80457854  0.38826270  0.51239448     0.09700
C3483       C  0.81591452  0.40562744  0.50156777     0.10100
C3484       C  0.81514982  0.41908014  0.51872452    -0.17200
C3485       C  0.80304445  0.41574279  0.54643517    -0.27600
C3486       C  0.79137500  0.39791808  0.55660448     0.18400
C3487       C  0.80441231  0.37354249  0.49420744     0.12400
C3488       C  0.82835298  0.40990629  0.47075522    -0.12000
H3489       H  0.82362591  0.43203188  0.50851667     0.12700
C3490       C  0.77724205  0.39235420  0.58455756    -0.22800
H3491       H  0.78369141  0.37108635  0.54723313     0.08300
C3492       C  0.81597486  0.36818641  0.50392806     0.04700
C3493       C  0.81538361  0.35426863  0.48554848    -0.20000
C3494       C  0.80302870  0.34496914  0.45815132    -0.12300
C3495       C  0.79052157  0.34981242  0.45063186     0.13400
C3496       C  0.79186189  0.36433023  0.46785890    -0.22800
C3497       C  0.82852402  0.37677307  0.53466202    -0.05800
H3498       H  0.82424549  0.35041978  0.49437649     0.14900
C3499       C  0.77507427  0.33996537  0.42571676    -0.16000
H3500       H  0.78261066  0.36820821  0.46143920     0.09200
H3501       H  0.78301466  0.39716901  0.61129772     0.07100
H3502       H  0.76893200  0.37791015  0.58675834     0.08300
H3503       H  0.76836790  0.39698146  0.57775531     0.07300
H3504       H  0.82084739  0.40314271  0.44627328     0.02200
H3505       H  0.83757905  0.40558417  0.47672039     0.02700
H3506       H  0.83617980  0.42414395  0.46518282     0.06200
H3507       H  0.83648751  0.37083163  0.53937751     0.05200
H3508       H  0.82108126  0.37530603  0.55944758    -0.00600
H3509       H  0.83759933  0.39087286  0.52923941     0.00900
H3510       H  0.76285448  0.33625063  0.44039973     0.04500
H3511       H  0.77322042  0.32773901  0.41473265     0.06500
H3512       H  0.77643895  0.34853217  0.40305601     0.07300
C3513       C  0.85612790  0.30914319  0.44323220    -0.22300
C3514       C  0.84882344  0.29245408  0.45806934     0.09700
C3515       C  0.83047248  0.28153110  0.46075680     0.10100
C3516       C  0.81986157  0.28777139  0.44946495    -0.17200
C3517       C  0.82714580  0.30483342  0.43643032    -0.27600
C3518       C  0.84553898  0.31544745  0.43206509     0.18400
C3519       C  0.86062607  0.28714697  0.47297544     0.12400
C3520       C  0.82210722  0.26340866  0.47610750    -0.12000
H3521       H  0.80580822  0.27946477  0.45206325     0.12700
C3522       C  0.85445375  0.33325605  0.41507675    -0.22800
H3523       H  0.87023289  0.31741069  0.44080107     0.08300
C3524       C  0.86872273  0.28056136  0.45138644     0.04700
C3525       C  0.87930187  0.27521002  0.46740463    -0.20000
C3526       C  0.88211260  0.27643856  0.50456615    -0.12300
C3527       C  0.87428044  0.28358292  0.52597124     0.13400
C3528       C  0.86365531  0.28877470  0.50979027    -0.22800
C3529       C  0.86596797  0.27896133  0.41158084    -0.05800
H3530       H  0.88525053  0.26986257  0.45077738     0.14900
C3531       C  0.87663319  0.28557747  0.56594304    -0.16000
H3532       H  0.85746710  0.29400893  0.52600802     0.09200
H3533       H  0.86233481  0.33355355  0.39192710     0.07100
H3534       H  0.86328483  0.34327234  0.43477923     0.08300
H3535       H  0.84514601  0.33676357  0.40497725     0.07300
H3536       H  0.82643129  0.26410746  0.50414425     0.02200
H3537       H  0.82595187  0.25557257  0.46007556     0.02700
H3538       H  0.80760001  0.25656298  0.47600765     0.06200
H3539       H  0.87312335  0.27343217  0.39859362     0.05200
H3540       H  0.87074652  0.29204414  0.39990068    -0.00600
H3541       H  0.85182288  0.27025667  0.40555970     0.00900
H3542       H  0.89069386  0.29441596  0.57252603     0.04500
H3543       H  0.87151092  0.27260952  0.57851409     0.06500
H3544       H  0.86946452  0.29132956  0.57789864     0.07300
C3545       C  0.66088620  0.17163019  0.71184235    -0.22300
C3546       C  0.67721774  0.18472430  0.72482488     0.09700
C3547       C  0.69044789  0.19574178  0.70048013     0.10100
C3548       C  0.68678885  0.19381786  0.66359962    -0.17200
C3549       C  0.67030996  0.18084844  0.65047465    -0.27600
C3550       C  0.65739082  0.16916820  0.67508988     0.18400
C3551       C  0.68004256  0.18612042  0.76410924     0.12400
C3552       C  0.70840966  0.20940246  0.71346449    -0.12000
H3553       H  0.69681230  0.20255802  0.64493924     0.12700
C3554       C  0.64018091  0.15331103  0.66398002    -0.22800
H3555       H  0.65092050  0.16287791  0.73062551     0.08300
C3556       C  0.67578447  0.19627670  0.78540149     0.04700
C3557       C  0.67628793  0.19526496  0.82276892    -0.20000
C3558       C  0.68053619  0.18399887  0.83972808    -0.12300
C3559       C  0.68557064  0.17438991  0.81803152     0.13400
C3560       C  0.68530947  0.17567737  0.78061270    -0.22800
C3561       C  0.67018086  0.20777490  0.76866881    -0.05800
H3562       H  0.67281093  0.20299061  0.83893997     0.14900
C3563       C  0.69042803  0.16194883  0.83255102    -0.16000
H3564       H  0.68854327  0.16786449  0.76406839     0.09200
H3565       H  0.62925989  0.15496832  0.67212929     0.07100
H3566       H  0.63856371  0.14156140  0.67742719     0.08300
H3567       H  0.63923558  0.15055002  0.63501392     0.07300
H3568       H  0.71424965  0.20303564  0.72834697     0.02200
H3569       H  0.70755508  0.21874133  0.73141991     0.02700
H3570       H  0.71726736  0.21688429  0.69097876     0.06200
H3571       H  0.66725012  0.21482702  0.78913093     0.05200
H3572       H  0.65820667  0.19971295  0.75242229    -0.00600
H3573       H  0.68075433  0.21762584  0.75122252     0.00900
H3574       H  0.68146974  0.14867639  0.82151053     0.04500
H3575       H  0.68956934  0.16091824  0.86169737     0.06500
H3576       H  0.70405102  0.16636049  0.82464267     0.07300
C3577       C  0.57978010  0.16334283  0.46500735    -0.22300
C3578       C  0.59379068  0.17652193  0.48457364     0.09700
C3579       C  0.59700957  0.19357183  0.48382783     0.10100
C3580       C  0.58578025  0.19696964  0.46459180    -0.17200
C3581       C  0.57099325  0.18372394  0.44599735    -0.27600
C3582       C  0.56855248  0.16669649  0.44516730     0.18400
C3583       C  0.60623677  0.17292278  0.50260748     0.12400
C3584       C  0.61275856  0.20843327  0.50238010    -0.12000
H3585       H  0.58942684  0.21039254  0.46329513     0.12700
C3586       C  0.55473758  0.15166920  0.42314481    -0.22800
H3587       H  0.57784993  0.15039706  0.46449694     0.08300
C3588       C  0.60593025  0.17051732  0.53975699     0.04700
C3589       C  0.61995255  0.17047183  0.55623988    -0.20000
C3590       C  0.63447415  0.17285172  0.53647430    -0.12300
C3591       C  0.63347865  0.17320182  0.49836568     0.13400
C3592       C  0.61961237  0.17362332  0.48232040    -0.22800
C3593       C  0.59079192  0.16804460  0.56195388    -0.05800
H3594       H  0.61922773  0.16850047  0.58469416     0.14900
C3595       C  0.64673940  0.17352491  0.47299621    -0.16000
H3596       H  0.61947337  0.17499506  0.45356091     0.09200
H3597       H  0.56113948  0.14691124  0.40501100     0.07100
H3598       H  0.54688305  0.15496681  0.40609737     0.08300
H3599       H  0.54569248  0.14082712  0.44110405     0.07300
H3600       H  0.62490909  0.20986311  0.49132738     0.02200
H3601       H  0.61215335  0.20585228  0.53145148     0.02700
H3602       H  0.61352793  0.22106313  0.49881095     0.06200
H3603       H  0.59246214  0.16615568  0.59064580     0.05200
H3604       H  0.57850009  0.15633534  0.55242476    -0.00600
H3605       H  0.58953643  0.17961890  0.55966863     0.00900
H3606       H  0.63995099  0.16237474  0.45411266     0.04500
H3607       H  0.65715078  0.17243338  0.48585574     0.06500
H3608       H  0.65306198  0.18586288  0.45744829     0.07300
C3609       C  0.68711914  0.13297689  0.57547746    -0.22300
C3610       C  0.68881838  0.12930161  0.53983416     0.09700
C3611       C  0.68252131  0.13528233  0.51232053     0.10100
C3612       C  0.67508098  0.14515006  0.52110674    -0.17200
C3613       C  0.67418006  0.14962244  0.55665312    -0.27600
C3614       C  0.67977579  0.14294705  0.58428973     0.18400
C3615       C  0.69743784  0.11940131  0.53178193     0.12400
C3616       C  0.68429801  0.13191306  0.47357974    -0.12000
H3617       H  0.67065721  0.15009831  0.49990065     0.12700
C3618       C  0.67762913  0.14544848  0.62327682    -0.22800
H3619       H  0.69151514  0.12796748  0.59661846     0.08300
C3620       C  0.71563653  0.12694374  0.53634949     0.04700
C3621       C  0.72333390  0.11743153  0.52623081    -0.20000
C3622       C  0.71332117  0.10071667  0.51097909    -0.12300
C3623       C  0.69500021  0.09295513  0.50760032     0.13400
C3624       C  0.68732313  0.10239470  0.51812881    -0.22800
C3625       C  0.72705002  0.14530494  0.55033796    -0.05800
H3626       H  0.73737724  0.12342193  0.52859285     0.14900
C3627       C  0.68306810  0.07468078  0.49358146    -0.16000
H3628       H  0.67330717  0.09649642  0.51529508     0.09200
H3629       H  0.69067693  0.15360564  0.63593166     0.07100
H3630       H  0.67048853  0.13254223  0.63674327     0.08300
H3631       H  0.66991444  0.15157707  0.62768609     0.07300
H3632       H  0.67664890  0.11767920  0.46803971     0.02200
H3633       H  0.69827970  0.13724973  0.46714768     0.02700
H3634       H  0.67939104  0.13819079  0.45555228     0.06200
H3635       H  0.74106886  0.14943345  0.55083983     0.05200
H3636       H  0.72314957  0.14618322  0.57799702    -0.00600
H3637       H  0.72570011  0.15453023  0.53301112     0.00900
H3638       H  0.67259015  0.06698386  0.51341391     0.04500
H3639       H  0.68983554  0.06754515  0.48878952     0.06500
H3640       H  0.67695160  0.07519740  0.46823741     0.07300
C3641       C  0.72682617  0.22050923  0.50852055    -0.22300
C3642       C  0.72919892  0.23718778  0.50917197     0.09700
C3643       C  0.71732215  0.23988528  0.52849125     0.10100
C3644       C  0.70299948  0.22569278  0.54564394    -0.17200
C3645       C  0.70008716  0.20876606  0.54368399    -0.27600
C3646       C  0.71233862  0.20622115  0.52523959     0.18400
C3647       C  0.74378251  0.25151439  0.48833344     0.12400
C3648       C  0.71962255  0.25769257  0.53056558    -0.12000
H3649       H  0.69359280  0.22767078  0.55957574     0.12700
C3650       C  0.70958498  0.18835127  0.52068547    -0.22800
H3651       H  0.73600171  0.21854959  0.49360471     0.08300
C3652       C  0.76110522  0.26067111  0.50132652     0.04700
C3653       C  0.77416682  0.27496333  0.48193289    -0.20000
C3654       C  0.77035233  0.28026117  0.44971370    -0.12300
C3655       C  0.75308553  0.27085156  0.43632039     0.13400
C3656       C  0.74004412  0.25648190  0.45562891    -0.22800
C3657       C  0.76563757  0.25582981  0.53637593    -0.05800
H3658       H  0.78724808  0.28263206  0.49293430     0.14900
C3659       C  0.74786793  0.27608496  0.40262927    -0.16000
H3660       H  0.72671908  0.24943042  0.44567921     0.09200
H3661       H  0.72015630  0.18870220  0.50462045     0.07100
H3662       H  0.69706390  0.17988157  0.50649446     0.08300
H3663       H  0.70939919  0.18269008  0.54705408     0.07300
H3664       H  0.71889670  0.26219600  0.50341895     0.02200
H3665       H  0.73253809  0.26712537  0.54256650     0.02700
H3666       H  0.70932066  0.25757397  0.54718779     0.06200
H3667       H  0.77972854  0.26452571  0.54295061     0.05200
H3668       H  0.76267842  0.24221765  0.53507312    -0.00600
H3669       H  0.75786555  0.25688794  0.55818294     0.00900
H3670       H  0.74226637  0.26505370  0.38335504     0.04500
H3671       H  0.75901530  0.28757937  0.38945277     0.06500
H3672       H  0.73783218  0.27933362  0.40897738     0.07300
loop_ 
_geom_bond_atom_site_label_1 
_geom_bond_atom_site_label_2 
_geom_bond_distance 
_geom_bond_site_symmetry_2 
_ccdc_geom_bond_type 
C1            C2   1.535       .  S
C1            C7   1.548       .  S
C1            C5   1.538       .  S
C1         C3590   1.542       .  S
C2            H9   1.087       .  S
C2            C3   1.362       .  D
C3            C4   1.546       .  S
C3         C3645   1.492       .  S
C4            C8   1.544       .  S
C4            C6   1.542       .  S
C4           H10   1.110       .  S
C5           H11   1.086       .  S
C5            C6   1.365       .  D
C6         C3613   1.489       .  S
C7           H12   1.082       .  S
C7            C8   1.369       .  D
C8         C3549   1.494       .  S
C13          C14   1.526       .  S
C13          C19   1.539       .  S
C13          C17   1.555       .  S
C13        C3494   1.544       .  S
C14          H21   1.087       .  S
C14          C15   1.357       .  D
C15          C16   1.545       .  S
C15        C3654   1.482       .  S
C16          C20   1.551       .  S
C16          C18   1.536       .  S
C16          H22   1.110       .  S
C17          H23   1.081       .  S
C17          C18   1.370       .  D
C18        C3517   1.488       .  S
C19          H24   1.086       .  S
C19          C20   1.370       .  D
C20        C3462   1.503       .  S
In25         O27   2.248       .  S
In25         O28   2.239       .  S
In25         O36   2.240       .  S
In25         O30   2.274       .  S
In25         O32   2.261       .  S
In25         O33   2.243       .  S
In25         O34   2.237       .  S
In25         O37   2.270       .  S
C26          O32   1.262       .  A
C26          O34   1.261       .  A
C26        C3430   1.493       .  S
O27          C35   1.261       .  A
O28          C35   1.261       .  A
C29          O36   1.257       .  A
C29          O30   1.261       .  A
C29        C3366   1.486       .  S
C31          O33   1.257       .  A
C31          O37   1.260       .  A
C31        C3622   1.479       .  S
C35        C3389   1.489       .  S
In38         O40   2.248       .  S
In38         O41   2.231       .  S
In38         O49   2.246       .  S
In38         O43   2.281       .  S
In38         O45   2.264       .  S
In38         O46   2.226       .  S
In38         O47   2.241       .  S
In38         O50   2.270       .  S
C39          O45   1.264       .  A
C39          O47   1.259       .  A
C39        C3421   1.494       .  S
O40          C48   1.261       .  A
O41          C48   1.258       .  A
C42          O49   1.257       .  A
C42          O43   1.262       .  A
C42        C3293   1.497       .  S
C44          O46   1.257       .  A
C44          O50   1.264       .  A
C44        C3526   1.492       .  S
C48        C3325   1.472       .  S
In51         O53   2.248       .  S
In51         O54   2.236       .  S
In51         O62   2.248       .  S
In51         O56   2.267       .  S
In51         O58   2.265       .  S
In51         O59   2.235       .  S
In51         O60   2.239       .  S
In51         O63   2.252       .  S
C52          O58   1.263       .  A
C52          O60   1.259       .  A
C52        C3261   1.492       .  S
O53          C61   1.261       .  A
O54          C61   1.258       .  A
C55          O62   1.259       .  A
C55          O56   1.263       .  A
C55        C3165   1.495       .  S
C57          O59   1.259       .  A
C57          O63   1.262       .  A
C57        C3229   1.475       .  S
C61        C3197   1.476       .  S
In64         O66   2.264       .  S
In64         O67   2.223       .  S
In64         O75   2.231       .  S
In64         O69   2.278       .  S
In64         O71   2.269       .  S
In64         O72   2.230       .  S
In64         O73   2.238       .  S
In64         O76   2.264       .  S
C65          O71   1.262       .  A
C65          O73   1.259       .  A
C65        C3270   1.490       .  S
O66          C74   1.264       .  A
O67          C74   1.257       .  A
C68          O75   1.257       .  A
C68          O69   1.262       .  A
C68        C3069   1.487       .  S
C70          O72   1.259       .  A
C70          O76   1.263       .  A
C70        C3133   1.491       .  S
C74        C3110   1.485       .  S
C77          C78   1.549       .  S
C77          C83   1.534       .  S
C77          C81   1.541       .  S
C77        C3581   1.545       .  S
C78          H85   1.081       .  S
C78          C79   1.360       .  D
C79          C80   1.533       .  S
C79        C3046   1.479       .  S
C80          C84   1.545       .  S
C80          C82   1.540       .  S
C80          H86   1.111       .  S
C81          H87   1.086       .  S
C81          C82   1.371       .  D
C82        C3238   1.490       .  S
C83          H88   1.086       .  S
C83          C84   1.362       .  D
C84        C3005   1.481       .  S
C89          C90   1.537       .  S
C89          C95   1.528       .  S
C89          C93   1.540       .  S
C89        C2941   1.541       .  S
C90          H97   1.079       .  S
C90          C91   1.358       .  D
C91          C92   1.551       .  S
C91        C3142   1.484       .  S
C92          C96   1.554       .  S
C92          C94   1.544       .  S
C92          H98   1.093       .  S
C93          H99   1.086       .  S
C93          C94   1.375       .  D
C94        C3037   1.513       .  S
C95         H100   1.085       .  S
C95          C96   1.368       .  D
C96        C2973   1.509       .  S
C101        C102   1.538       .  S
C101        C107   1.531       .  S
C101        C105   1.552       .  S
C101       C2854   1.543       .  S
C102        H109   1.086       .  S
C102        C103   1.370       .  D
C103        C104   1.546       .  S
C103       C2877   1.496       .  S
C104        C108   1.544       .  S
C104        C106   1.535       .  S
C104        H110   1.110       .  S
C105        H111   1.080       .  S
C105        C106   1.364       .  D
C106       C2909   1.484       .  S
C107        H112   1.087       .  S
C107        C108   1.360       .  D
C108       C2982   1.478       .  S
In113       O115   2.247       .  S
In113       O116   2.231       .  S
In113       O124   2.235       .  S
In113       O118   2.271       .  S
In113       O120   2.271       .  S
In113       O121   2.236       .  S
In113       O122   2.224       .  S
In113       O125   2.258       .  S
C114        O120   1.265       .  A
C114        O122   1.258       .  A
C114       C2822   1.482       .  S
O115        C123   1.261       .  A
O116        C123   1.258       .  A
C117        O124   1.259       .  A
C117        O118   1.262       .  A
C117       C2758   1.493       .  S
C119        O121   1.258       .  A
C119        O125   1.263       .  A
C119       C2886   1.479       .  S
C123       C2781   1.480       .  S
In126       O128   2.245       .  S
In126       O129   2.244       .  S
In126       O137   2.244       .  S
In126       O131   2.270       .  S
In126       O133   2.259       .  S
In126       O134   2.242       .  S
In126       O135   2.227       .  S
In126       O138   2.263       .  S
C127        O133   1.265       .  A
C127        O135   1.259       .  A
C127       C2813   1.481       .  S
O128        C136   1.262       .  A
O129        C136   1.261       .  A
C130        O137   1.259       .  A
C130        O131   1.260       .  A
C130       C2653   1.490       .  S
C132        O134   1.259       .  A
C132        O138   1.260       .  A
C132       C2717   1.476       .  S
C136       C2685   1.482       .  S
C139        C140   1.531       .  S
C139        C145   1.533       .  S
C139        C143   1.554       .  S
C139       C3485   1.546       .  S
C140        H147   1.087       .  S
C140        C141   1.364       .  D
C141        C142   1.544       .  S
C141       C2918   1.495       .  S
C142        C146   1.544       .  S
C142        C144   1.532       .  S
C142        H148   1.108       .  S
C143        H149   1.081       .  S
C143        C144   1.368       .  D
C144       C2726   1.483       .  S
C145        H150   1.085       .  S
C145        C146   1.367       .  D
C146       C2621   1.488       .  S
C151        C152   1.542       .  S
C151        C157   1.536       .  S
C151        C155   1.525       .  S
C151       C2534   1.541       .  S
C152        H159   1.084       .  S
C152        C153   1.371       .  D
C153        C154   1.549       .  S
C153       C3558   1.502       .  S
C154        C158   1.549       .  S
C154        C156   1.552       .  S
C154        H160   1.102       .  S
C155        H161   1.087       .  S
C155        C156   1.360       .  D
C156       C2557   1.481       .  S
C157        H162   1.084       .  S
C157        C158   1.371       .  D
C158       C2598   1.511       .  S
C163        C164   1.539       .  S
C163        C169   1.543       .  S
C163        C167   1.547       .  S
C163       C2461   1.552       .  S
C164        H171   1.086       .  S
C164        C165   1.370       .  D
C165        C166   1.543       .  S
C165       C3453   1.503       .  S
C166        C170   1.538       .  S
C166        C168   1.540       .  S
C166        H172   1.109       .  S
C167        H173   1.080       .  S
C167        C168   1.369       .  D
C168       C2493   1.492       .  S
C169        H174   1.086       .  S
C169        C170   1.365       .  D
C170       C2589   1.486       .  S
In175       O177   2.243       .  S
In175       O178   2.242       .  S
In175       O186   2.253       .  S
In175       O180   2.263       .  S
In175       O182   2.268       .  S
In175       O183   2.255       .  S
In175       O184   2.225       .  S
In175       O187   2.241       .  S
C176        O182   1.266       .  A
C176        O184   1.258       .  A
C176       C2429   1.487       .  S
O177        C185   1.263       .  A
O178        C185   1.263       .  A
C179        O186   1.259       .  A
C179        O180   1.260       .  A
C179       C2406   1.492       .  S
C181        O183   1.261       .  A
C181        O187   1.258       .  A
C181       C3398   1.478       .  S
C185       C2566   1.480       .  S
In188       O190   2.253   1_556  S
In188       O191   2.226       .  S
In188       O199   2.250       .  S
In188       O193   2.253       .  S
In188       O195   2.262       .  S
In188       O196   2.233       .  S
In188       O197   2.239       .  S
In188       O200   2.237       .  S
C189        O195   1.262       .  A
C189        O197   1.259       .  A
C189       C2438   1.492       .  S
O190        C198   1.263   1_554  A
O191        C198   1.260       .  A
C192        O199   1.258       .  A
C192        O193   1.259       .  A
C192       C2365   1.476       .  S
C194        O196   1.260       .  A
C194        O200   1.260       .  A
C194       C3334   1.479       .  S
C198       C2502   1.484   1_556  S
In201       O203   2.249   1_554  S
In201       O204   2.235       .  S
In201       O212   2.237       .  S
In201       O206   2.268       .  S
In201       O208   2.271       .  S
In201       O209   2.234       .  S
In201       O210   2.218       .  S
In201       O213   2.242       .  S
C202        O208   1.267       .  A
C202        O210   1.258       .  A
C202       C2333   1.490       .  S
O203        C211   1.265   1_556  A
O204        C211   1.261       .  A
C205        O212   1.257       .  A
C205        O206   1.262       .  A
C205       C2269   1.474       .  S
C207        O209   1.261       .  A
C207        O213   1.260       .  A
C207       C3101   1.471       .  S
C211       C2301   1.486   1_554  S
In214       O216   2.251   1_556  S
In214       O217   2.239       .  S
In214       O225   2.260       .  S
In214       O219   2.262       .  S
In214       O221   2.273       .  S
In214       O222   2.244       .  S
In214       O223   2.233       .  S
In214       O226   2.234       .  S
C215        O221   1.264       .  A
C215        O223   1.258       .  A
C215       C2342   1.493       .  S
O216        C224   1.265   1_554  A
O217        C224   1.261       .  A
C218        O225   1.257       .  A
C218        O219   1.257       .  A
C218       C2205   1.493       .  S
C220        O222   1.262       .  A
C220        O226   1.259       .  A
C220       C3206   1.485       .  S
C224       C2237   1.493       .  S
C227        C228   1.534       .  S
C227        C233   1.539       .  S
C227        C231   1.536       .  S
C227       C2525   1.546       .  S
C228        H235   1.084       .  S
C228        C229   1.368       .  D
C229        C230   1.558       .  S
C229       C3014   1.511       .  S
C230        C234   1.560       .  S
C230        C232   1.539       .  S
C230        H236   1.103       .  S
C231        H237   1.086       .  S
C231        C232   1.365       .  D
C232       C2246   1.492       .  S
C233        H238   1.081       .  S
C233        C234   1.372       .  D
C234       C2173   1.512       .  S
C239        C240   1.530       .  S
C239        C245   1.535       .  S
C239        C243   1.548       .  S
C239       C2950   1.540       .  S
C240        H247   1.087       .  S
C240        C241   1.362       .  D
C241        C242   1.547       .  S
C241       C2150   1.492       .  S
C242        C246   1.551       .  S
C242        C244   1.540       .  S
C242        H248   1.110       .  S
C243        H249   1.081       .  S
C243        C244   1.363       .  D
C244       C2182   1.483       .  S
C245        H250   1.087       .  S
C245        C246   1.369       .  D
C246       C2310   1.500       .  S
C251        C252   1.545       .  S
C251        C257   1.537       .  S
C251        C255   1.538       .  S
C251       C2845   1.541       .  S
C252        H259   1.083       .  S
C252        C253   1.364       .  D
C253        C254   1.539       .  S
C253       C2141   1.487       .  S
C254        C258   1.545       .  S
C254        C256   1.541       .  S
C254        H260   1.110   1_554  S
C255        H261   1.086       .  S
C255        C256   1.369       .  D
C256       C2109   1.493       .  S
C257        H262   1.086       .  S
C257        C258   1.363       .  D
C258       C2077   1.484       .  S
In263       O265   2.264       .  S
In263       O266   2.255       .  S
In263       O274   2.251       .  S
In263       O268   2.251       .  S
In263       O270   2.258       .  S
In263       O271   2.239       .  S
In263       O272   2.242       .  S
In263       O275   2.245       .  S
C264        O270   1.260       .  A
C264        O272   1.258       .  A
C264       C2045   1.478       .  S
O265        C273   1.260       .  A
O266        C273   1.257       .  A
C267        O274   1.261       .  A
C267        O268   1.260       .  A
C267       C2022   1.478       .  S
C269        O271   1.260       .  A
C269        O275   1.262       .  A
C269       C2790   1.482       .  S
C273       C2086   1.494       .  S
In276       O278   2.252       .  S
In276       O279   2.253       .  S
In276       O287   2.254       .  S
In276       O281   2.253       .  S
In276       O283   2.257       .  S
In276       O284   2.243       .  S
In276       O285   2.243       .  S
In276       O288   2.247       .  S
C277        O283   1.261       .  A
C277        O285   1.258       .  A
C277       C2054   1.478       .  S
O278        C286   1.260       .  A
O279        C286   1.261       .  A
C280        O287   1.260       .  A
C280        O281   1.259       .  A
C280       C1949   1.487       .  S
C282        O284   1.261       .  A
C282        O288   1.261       .  A
C282       C2694   1.485       .  S
C286       C1981   1.480       .  S
C289        C290   1.542       .  S
C289        C295   1.536       .  S
C289        C293   1.552       .  S
C289       C2470   1.556       .  S
C290        H297   1.083       .  S
C290        C291   1.373       .  D
C291        C292   1.546       .  S
C291       C2630   1.500       .  S
C292        C296   1.530       .  S
C292        C294   1.542       .  S
C292        H298   1.108       .  S
C293        H299   1.082       .  S
C293        C294   1.368       .  D
C294       C1990   1.490       .  S
C295        H300   1.087       .  S
C295        C296   1.361       .  D
C296       C2118   1.477       .  S
In301       O303   2.243       .  S
In301       O304   2.239       .  S
In301       O312   2.236       .  S
In301       O306   2.279       .  S
In301       O308   2.275       .  S
In301       O309   2.225       .  S
In301       O310   2.229       .  S
In301       O313   2.258   1_556  S
C302        O308   1.267       .  A
C302        O310   1.258       .  A
C302       C1917   1.497       .  S
O303        C311   1.261       .  A
O304        C311   1.260       .  A
C305        O312   1.255       .  A
C305        O306   1.263       .  A
C305       C2374   1.493       .  S
C307        O309   1.258       .  A
C307        O313   1.263   1_556  A
C307       C1885   1.469   1_556  S
C311       C1853   1.477       .  S
In314       O316   2.249       .  S
In314       O317   2.244       .  S
In314       O325   2.248       .  S
In314       O319   2.270       .  S
In314       O321   2.278       .  S
In314       O322   2.238       .  S
In314       O323   2.233       .  S
In314       O326   2.263       .  S
C315        O321   1.265       .  A
C315        O323   1.257       .  A
C315       C1926   1.494       .  S
O316        C324   1.262       .  A
O317        C324   1.260       .  A
C318        O325   1.258       .  A
C318        O319   1.262       .  A
C318       C2278   1.496       .  S
C320        O322   1.259       .  A
C320        O326   1.262       .  A
C320       C1830   1.478       .  S
C324       C1798   1.490       .  S
C327        C328   1.539       .  S
C327        C333   1.552       .  S
C327        C331   1.537       .  S
C327       C1734   1.545       .  S
C328        H335   1.086       .  S
C328        C329   1.362       .  D
C329        C330   1.535       .  S
C329       C1757   1.483       .  S
C330        C334   1.542       .  S
C330        C332   1.537       .  S
C330        H336   1.111       .  S
C331        H337   1.085       .  S
C331        C332   1.364       .  D
C332       C1894   1.485       .  S
C333        H338   1.081       .  S
C333        C334   1.373       .  D
C334       C1702   1.496       .  S
C339        C340   1.531       .  S
C339        C345   1.547       .  S
C339        C343   1.540       .  S
C339       C1629   1.548       .  S
C340        H347   1.087       .  S
C340        C341   1.362       .  D
C341        C342   1.542       .  S
C341       C1821   1.486       .  S
C342        C346   1.545       .  S
C342        C344   1.546       .  S
C342        H348   1.106       .  S
C343        H349   1.086       .  S
C343        C344   1.371       .  D
C344       C1766   1.497       .  S
C345        H350   1.080       .  S
C345        C346   1.366       .  D
C346       C1670   1.495       .  S
In351       O353   2.244       .  S
In351       O354   2.243       .  S
In351       O362   2.236       .  S
In351       O356   2.262       .  S
In351       O358   2.264       .  S
In351       O359   2.240       .  S
In351       O360   2.231       .  S
In351       O363   2.262       .  S
C352        O358   1.264       .  A
C352        O360   1.259       .  A
C352       C1597   1.487       .  S
O353        C361   1.260       .  A
O354        C361   1.261       .  A
C355        O362   1.260       .  A
C355        O356   1.262       .  A
C355       C1958   1.482       .  S
C357        O359   1.261       .  A
C357        O363   1.262       .  A
C357       C1574   1.494       .  S
C361       C1542   1.476       .  S
In364       O366   2.236       .  S
In364       O367   2.233       .  S
In364       O375   2.244       .  S
In364       O369   2.268       .  S
In364       O371   2.267       .  S
In364       O372   2.233       .  S
In364       O373   2.240       .  S
In364       O376   2.251   1_556  S
C365        O371   1.265       .  A
C365        O373   1.258       .  A
C365       C1606   1.494       .  S
O366        C374   1.262       .  A
O367        C374   1.261       .  A
C368        O375   1.258       .  A
C368        O369   1.261       .  A
C368       C2214   1.491       .  S
C370        O372   1.259       .  A
C370        O376   1.262   1_556  A
C370       C1510   1.473   1_556  S
C374       C1469   1.478       .  S
C377        C378   1.534       .  S
C377        C383   1.552       .  S
C377        C381   1.535       .  S
C377       C1414   1.542       .  S
C378        H385   1.086       .  S
C378        C379   1.362       .  D
C379        C380   1.538       .  S
C379       C1437   1.486       .  S
C380        C384   1.540       .  S
C380        C382   1.532       .  S
C380        H386   1.109       .  S
C381        H387   1.085       .  S
C381        C382   1.362       .  D
C382       C1501   1.474       .  S
C383        H388   1.081       .  S
C383        C384   1.371       .  D
C384       C1382   1.492       .  S
C389        C390   1.540       .  S
C389        C395   1.529       .  S
C389        C393   1.549       .  S
C389       C1725   1.546       .  S
C390        H397   1.084       .  S
C390        C391   1.359       .  D
C391        C392   1.541       .  S
C391       C1446   1.485       .  S
C392        C396   1.544       .  S
C392        C394   1.545       .  S
C392        H398   1.101       .  S
C393        H399   1.085       .  S
C393        C394   1.377       .  D
C394       C1565   1.506       .  S
C395        H400   1.086       .  S
C395        C396   1.365       .  D
C396       C1341   1.491       .  S
C401        C402   1.545       .  S
C401        C407   1.534       .  S
C401        C405   1.541       .  S
C401       C1405   1.543       .  S
C402        H409   1.082       .  S
C402        C403   1.362       .  D
C403        C404   1.544       .  S
C403       C1309   1.481       .  S
C404        C408   1.545       .  S
C404        C406   1.537       .  S
C404        H410   1.110       .  S
C405        H411   1.086       .  S
C405        C406   1.365       .  D
C406       C1277   1.489       .  S
C407        H412   1.087       .  S
C407        C408   1.369       .  D
C408       C1245   1.497       .  S
In413       O415   2.247       .  S
In413       O416   2.236       .  S
In413       O424   2.241       .  S
In413       O418   2.272       .  S
In413       O420   2.269       .  S
In413       O421   2.232       .  S
In413       O422   2.244       .  S
In413       O425   2.266   1_554  S
C414        O420   1.262       .  A
C414        O422   1.259       .  A
C414       C1213   1.489       .  S
O415        C423   1.262       .  A
O416        C423   1.260       .  A
C417        O424   1.258       .  A
C417        O418   1.263       .  A
C417       C2397   1.491       .  S
C419        O421   1.257       .  A
C419        O425   1.262   1_554  A
C419       C1286   1.490       .  S
C423       C1181   1.473       .  S
In426       O428   2.248       .  S
In426       O429   2.237       .  S
In426       O437   2.233       .  S
In426       O431   2.266       .  S
In426       O433   2.265       .  S
In426       O434   2.241       .  S
In426       O435   2.237       .  S
In426       O438   2.256       .  S
C427        O433   1.263       .  A
C427        O435   1.259       .  A
C427       C1222   1.493       .  S
O428        C436   1.261       .  A
O429        C436   1.261       .  A
C430        O437   1.257       .  A
C430        O431   1.263       .  A
C430       C2013   1.492       .  S
C432        O434   1.260       .  A
C432        O438   1.261       .  A
C432       C1149   1.487       .  S
C436       C1126   1.481       .  S
C439        C440   1.542       .  S
C439        C445   1.534       .  S
C439        C443   1.539       .  S
C439       C1085   1.539       .  S
C440        H447   1.080       .  S
C440        C441   1.362       .  D
C441        C442   1.546       .  S
C441       C1158   1.489       .  S
C442        C446   1.549       .  S
C442        C444   1.538       .  S
C442        H448   1.109       .  S
C443        H449   1.087       .  S
C443        C444   1.365       .  D
C444       C1318   1.489       .  S
C445        H450   1.086       .  S
C445        C446   1.366       .  D
C446       C1661   1.489       .  S
In451       O453   2.256       .  S
In451       O454   2.242       .  S
In451       O462   2.258       .  S
In451       O456   2.250       .  S
In451       O458   2.264       .  S
In451       O459   2.232       .  S
In451       O460   2.225       .  S
In451       O463   2.240       .  S
C452        O458   1.263       .  A
C452        O460   1.256       .  A
C452       C1053   1.479       .  S
O453        C461   1.264       .  A
O454        C461   1.259       .  A
C455        O462   1.262       .  A
C455        O456   1.259       .  A
C455       C2749   1.483       .  S
C457        O459   1.261       .  A
C457        O463   1.261       .  A
C457       C1117   1.468       .  S
C461       C1021   1.483       .  S
In464       O466   2.251       .  S
In464       O467   2.239       .  S
In464       O475   2.236       .  S
In464       O469   2.269       .  S
In464       O471   2.255       .  S
In464       O472   2.232       .  S
In464       O473   2.230       .  S
In464       O476   2.248       .  S
C465        O471   1.264       .  A
C465        O473   1.261       .  A
C465       C1062   1.491       .  S
O466        C474   1.262       .  A
O467        C474   1.261       .  A
C468        O475   1.258       .  A
C468        O469   1.262       .  A
C468       C3357   1.483       .  S
C470        O472   1.261       .  A
C470        O476   1.261       .  A
C470       C1190   1.484       .  S
C474        C998   1.476       .  S
C477        C478   1.532       .  S
C477        C483   1.534       .  S
C477        C481   1.550       .  S
C477       C1094   1.540       .  S
C478        H485   1.087       .  S
C478        C479   1.365       .  D
C479        C480   1.542       .  S
C479        C925   1.484       .  S
C480        C484   1.537       .  S
C480        C482   1.538       .  S
C480        H486   1.110       .  S
C481        H487   1.080       .  S
C481        C482   1.370       .  D
C482        C966   1.489       .  S
C483        H488   1.087       .  S
C483        C484   1.362       .  D
C484       C1030   1.486       .  S
C489        C490   1.547       .  S
C489        C495   1.543       .  S
C489        C493   1.529       .  S
C489        C902   1.538       .  S
C490        H497   1.085       .  S
C490        C491   1.368       .  D
C491        C492   1.535       .  S
C491       C1254   1.484       .  S
C492        C496   1.539       .  S
C492        C494   1.537       .  S
C492        H498   1.110       .  S
C493        H499   1.086       .  S
C493        C494   1.361       .  D
C494        C989   1.476       .  S
C495        H500   1.083       .  S
C495        C496   1.369       .  D
C496        C957   1.492       .  S
C501        C502   1.532       .  S
C501        C507   1.545       .  S
C501        C505   1.538       .  S
C501        C806   1.537       .  S
C502        H509   1.086       .  S
C502        C503   1.367       .  D
C503        C504   1.542       .  S
C503       C1350   1.490       .  S
C504        C508   1.540       .  S
C504        C506   1.536       .  S
C504        H510   1.109       .  S
C505        H511   1.085       .  S
C505        C506   1.362       .  D
C506        C829   1.473       .  S
C507        H512   1.085       .  S
C507        C508   1.366       .  D
C508        C870   1.488       .  S
C513        C514   1.542       .  S
C513        C519   1.535       .  S
C513        C517   1.536       .  S
C513        C893   1.539       .  S
C514        H521   1.083       .  S
C514        C515   1.370       .  D
C515        C516   1.546       .  S
C515       C1373   1.488       .  S
C516        C520   1.545       .  S
C516        C518   1.541       .  S
C516        H522   1.109       .  S
C517        H523   1.086       .  S
C517        C518   1.366       .  D
C518        C774   1.488       .  S
C519        H524   1.086       .  S
C519        C520   1.361       .  D
C520        C861   1.491       .  S
In525       O527   2.256       .  S
In525       O528   2.233       .  S
In525       O536   2.255       .  S
In525       O530   2.261       .  S
In525       O532   2.266       .  S
In525       O533   2.246       .  S
In525       O534   2.246       .  S
In525       O537   2.248       .  S
C526        O532   1.262       .  A
C526        O534   1.259       .  A
C526        C733   1.488       .  S
O527        C535   1.264       .  A
O528        C535   1.259       .  A
C529        O536   1.259       .  A
C529        O530   1.261       .  A
C529       C3174   1.482       .  S
C531        O533   1.259       .  A
C531        O537   1.259       .  A
C531       C1478   1.481       .  S
C535        C765   1.490       .  S
In538       O540   2.244       .  S
In538       O541   2.238       .  S
In538       O549   2.257       .  S
In538       O543   2.265       .  S
In538       O545   2.273       .  S
In538       O546   2.243       .  S
In538       O547   2.230       .  S
In538       O550   2.232       .  S
C539        O545   1.266       .  A
C539        O547   1.257       .  A
C539        C742   1.492       .  S
O540        C548   1.263       .  A
O541        C548   1.261       .  A
C542        O549   1.258       .  A
C542        O543   1.261       .  A
C542       C2662   1.492       .  S
C544        O546   1.262       .  A
C544        O550   1.261       .  A
C544       C1533   1.475       .  S
C548        C838   1.477       .  S
In551       O553   2.260       .  S
In551       O554   2.236       .  S
In551       O562   2.264       .  S
In551       O556   2.266       .  S
In551       O558   2.271       .  S
In551       O559   2.243       .  S
In551       O560   2.246       .  S
In551       O563   2.249       .  S
C552        O558   1.263       .  A
C552        O560   1.258       .  A
C552        C710   1.484       .  S
O553        C561   1.263       .  A
O554        C561   1.259       .  A
C555        O562   1.259       .  A
C555        O556   1.261       .  A
C555       C3302   1.488       .  S
C557        O559   1.261       .  A
C557        O563   1.261       .  A
C557       C1862   1.481       .  S
C561        C669   1.488       .  S
In564       O566   2.257       .  S
In564       O567   2.257       .  S
In564       O575   2.261       .  S
In564       O569   2.250       .  S
In564       O571   2.261       .  S
In564       O572   2.241       .  S
In564       O573   2.263       .  S
In564       O576   2.259       .  S
C565        O571   1.259       .  A
C565        O573   1.259       .  A
C565        C701   1.485       .  S
O566        C574   1.260       .  A
O567        C574   1.258       .  A
C568        O575   1.262       .  A
C568        O569   1.260       .  A
C568       C3078   1.488       .  S
C570        O572   1.261       .  A
C570        O576   1.262       .  A
C570       C1789   1.492       .  S
C574        C637   1.492       .  S
C577        C578   1.535       .  S
C577        C583   1.548       .  S
C577        C581   1.537       .  S
C577       C1638   1.546       .  S
C578        H585   1.087       .  S
C578        C579   1.365       .  D
C579        C580   1.544       .  S
C579        C934   1.491       .  S
C580        C584   1.545       .  S
C580        C582   1.544       .  S
C580        H586   1.110       .  S
C581        H587   1.086       .  S
C581        C582   1.365       .  D
C582        C605   1.485       .  S
C583        H588   1.081       .  S
C583        C584   1.367       .  D
C584        C646   1.494       .  S
C589        C590   1.538       .  S
C589        C595   1.534       .  S
C589        C593   1.546       .  S
C589        C797   1.545       .  S
C590        H597   1.080       .  S
C590        C591   1.367       .  D
C591        C592   1.544       .  S
C591       C1693   1.490       .  S
C592        C596   1.543       .  S
C592        C594   1.538       .  S
C592        H598   1.108       .  S
C593        H599   1.085       .  S
C593        C594   1.365       .  D
C594        C678   1.483       .  S
C595        H600   1.087       .  S
C595        C596   1.365       .  D
C596        C614   1.496       .  S
C601        C602   1.402       .  A
C601        C606   1.407       .  A
C601        H611   1.084       .  S
C602        C607   1.481       .  S
C602        C603   1.411       .  A
C603        C608   1.508       .  S
C603        C604   1.401       .  A
C604        C605   1.404       .  A
C604        H609   1.084       .  S
C605        C606   1.414       .  A
C606        C610   1.505       .  S
C607        C612   1.408       .  A
C607        C616   1.401       .  A
C608        H624   1.110       .  S
C608        H625   1.109       .  S
C608        H626   1.111       .  S
C610        H621   1.110       .  S
C610        H622   1.111       .  S
C610        H623   1.109       .  S
C612        C617   1.508       .  S
C612        C613   1.400       .  A
C613        C614   1.409       .  A
C613        H618   1.083       .  S
C614        C615   1.419       .  A
C615        C619   1.506       .  S
C615        C616   1.407       .  A
C616        H620   1.084       .  S
C617        H627   1.111       .  S
C617        H628   1.110       .  S
C617        H629   1.109       .  S
C619        H630   1.110       .  S
C619        H631   1.106       .  S
C619        H632   1.110       .  S
C633        C634   1.400       .  A
C633        C638   1.409       .  A
C633        H643   1.084       .  S
C634        C639   1.485       .  S
C634        C635   1.411       .  A
C635        C640   1.508       .  S
C635        C636   1.403       .  A
C636        C637   1.406       .  A
C636        H641   1.084       .  S
C637        C638   1.422       .  A
C638        C642   1.507       .  S
C639        C644   1.409       .  A
C639        C648   1.400       .  A
C640        H656   1.110       .  S
C640        H657   1.110       .  S
C640        H658   1.111       .  S
C642        H653   1.110       .  S
C642        H654   1.111       .  S
C642        H655   1.110       .  S
C644        C649   1.505       .  S
C644        C645   1.406       .  A
C645        C646   1.408       .  A
C645        H650   1.084       .  S
C646        C647   1.419       .  A
C647        C651   1.502       .  S
C647        C648   1.404       .  A
C648        H652   1.085       .  S
C649        H659   1.111       .  S
C649        H660   1.110       .  S
C649        H661   1.110       .  S
C651        H662   1.110       .  S
C651        H663   1.095       .  S
C651        H664   1.110       .  S
C665        C666   1.399       .  A
C665        C670   1.403       .  A
C665        H675   1.084       .  S
C666        C671   1.483       .  S
C666        C667   1.410       .  A
C667        C672   1.506       .  S
C667        C668   1.407       .  A
C668        C669   1.408       .  A
C668        H673   1.084       .  S
C669        C670   1.419       .  A
C670        C674   1.508       .  S
C671        C676   1.411       .  A
C671        C680   1.403       .  A
C672        H688   1.110       .  S
C672        H689   1.110       .  S
C672        H690   1.111       .  S
C674        H685   1.110       .  S
C674        H686   1.111       .  S
C674        H687   1.109       .  S
C676        C681   1.506       .  S
C676        C677   1.403       .  A
C677        C678   1.403       .  A
C677        H682   1.084       .  S
C678        C679   1.413       .  A
C679        C683   1.506       .  S
C679        C680   1.406       .  A
C680        H684   1.084       .  S
C681        H691   1.111       .  S
C681        H692   1.110       .  S
C681        H693   1.110       .  S
C683        H694   1.111       .  S
C683        H695   1.111       .  S
C683        H696   1.108       .  S
C697        C698   1.401       .  A
C697        C702   1.405       .  A
C697        H707   1.085       .  S
C698        C703   1.490       .  S
C698        C699   1.411       .  A
C699        C704   1.506       .  S
C699        C700   1.408       .  A
C700        C701   1.406       .  A
C700        H705   1.084       .  S
C701        C702   1.421       .  A
C702        C706   1.510       .  S
C703        C708   1.411       .  A
C703        C712   1.403       .  A
C704        H720   1.110       .  S
C704        H721   1.110       .  S
C704        H722   1.111       .  S
C706        H717   1.110       .  S
C706        H718   1.111       .  S
C706        H719   1.104       .  S
C708        C713   1.506       .  S
C708        C709   1.406       .  A
C709        C710   1.406       .  A
C709        H714   1.084       .  S
C710        C711   1.419       .  A
C711        C715   1.509       .  S
C711        C712   1.406       .  A
C712        H716   1.085       .  S
C713        H723   1.111       .  S
C713        H724   1.109       .  S
C713        H725   1.110       .  S
C715        H726   1.111       .  S
C715        H727   1.105       .  S
C715        H728   1.110       .  S
C729        C730   1.402       .  A
C729        C734   1.408       .  A
C729        H739   1.084       .  S
C730        C735   1.486       .  S
C730        C731   1.411       .  A
C731        C736   1.508       .  S
C731        C732   1.404       .  A
C732        C733   1.406       .  A
C732        H737   1.084       .  S
C733        C734   1.418       .  A
C734        C738   1.506       .  S
C735        C740   1.410       .  A
C735        C744   1.399       .  A
C736        H752   1.110       .  S
C736        H753   1.109       .  S
C736        H754   1.111       .  S
C738        H749   1.111       .  S
C738        H750   1.109       .  S
C738        H751   1.111       .  S
C740        C745   1.506       .  S
C740        C741   1.407       .  A
C741        C742   1.407       .  A
C741        H746   1.084       .  S
C742        C743   1.423       .  A
C743        C747   1.509       .  S
C743        C744   1.406       .  A
C744        H748   1.084       .  S
C745        H755   1.111       .  S
C745        H756   1.110       .  S
C745        H757   1.109       .  S
C747        H758   1.111       .  S
C747        H759   1.111       .  S
C747        H760   1.109       .  S
C761        C762   1.399       .  A
C761        C766   1.405       .  A
C761        H771   1.084       .  S
C762        C767   1.482       .  S
C762        C763   1.408       .  A
C763        C768   1.506       .  S
C763        C764   1.405       .  A
C764        C765   1.408       .  A
C764        H769   1.084       .  S
C765        C766   1.422       .  A
C766        C770   1.508       .  S
C767        C772   1.409       .  A
C767        C776   1.400       .  A
C768        H784   1.110       .  S
C768        H785   1.110       .  S
C768        H786   1.111       .  S
C770        H781   1.111       .  S
C770        H782   1.109       .  S
C770        H783   1.110       .  S
C772        C777   1.505       .  S
C772        C773   1.405       .  A
C773        C774   1.406       .  A
C773        H778   1.084       .  S
C774        C775   1.416       .  A
C775        C779   1.504       .  S
C775        C776   1.403       .  A
C776        H780   1.084       .  S
C777        H787   1.111       .  S
C777        H788   1.110       .  S
C777        H789   1.110       .  S
C779        H790   1.111       .  S
C779        H791   1.108       .  S
C779        H792   1.107       .  S
C793        C794   1.396       .  A
C793        C798   1.404       .  A
C793        H803   1.085       .  S
C794        C799   1.486       .  S
C794        C795   1.406       .  A
C795        C800   1.508       .  S
C795        C796   1.405       .  A
C796        C797   1.418       .  A
C796        H801   1.079       .  S
C797        C798   1.431       .  A
C798        C802   1.510       .  S
C799        C804   1.411       .  A
C799        C808   1.401       .  A
C800        H816   1.109       .  S
C800        H817   1.110       .  S
C800        H818   1.111       .  S
C802        H813   1.111       .  S
C802        H814   1.107       .  S
C802        H815   1.109       .  S
C804        C809   1.509       .  S
C804        C805   1.399       .  A
C805        C806   1.410       .  A
C805        H810   1.081       .  S
C806        C807   1.426       .  A
C807        C811   1.508       .  S
C807        C808   1.407       .  A
C808        H812   1.084       .  S
C809        H819   1.111       .  S
C809        H820   1.109       .  S
C809        H821   1.110       .  S
C811        H822   1.110       .  S
C811        H823   1.106       .  S
C811        H824   1.111       .  S
C825        C826   1.402       .  A
C825        C830   1.403       .  A
C825        H835   1.084       .  S
C826        C831   1.478       .  S
C826        C827   1.412       .  A
C827        C832   1.507       .  S
C827        C828   1.402       .  A
C828        C829   1.400       .  A
C828        H833   1.084       .  S
C829        C830   1.410       .  A
C830        C834   1.506       .  S
C831        C836   1.410       .  A
C831        C840   1.398       .  A
C832        H848   1.110       .  S
C832        H849   1.109       .  S
C832        H850   1.111       .  S
C834        H845   1.111       .  S
C834        H846   1.110       .  S
C834        H847   1.110       .  S
C836        C841   1.507       .  S
C836        C837   1.404       .  A
C837        C838   1.405       .  A
C837        H842   1.084       .  S
C838        C839   1.420       .  A
C839        C843   1.510       .  S
C839        C840   1.402       .  A
C840        H844   1.085       .  S
C841        H851   1.111       .  S
C841        H852   1.110       .  S
C841        H853   1.110       .  S
C843        H854   1.110       .  S
C843        H855   1.104       .  S
C843        H856   1.111       .  S
C857        C858   1.405       .  A
C857        C862   1.408       .  A
C857        H867   1.084       .  S
C858        C863   1.484       .  S
C858        C859   1.408       .  A
C859        C864   1.508       .  S
C859        C860   1.399       .  A
C860        C861   1.409       .  A
C860        H865   1.083       .  S
C861        C862   1.415       .  A
C862        C866   1.506       .  S
C863        C868   1.411       .  A
C863        C872   1.401       .  A
C864        H880   1.109       .  S
C864        H881   1.110       .  S
C864        H882   1.111       .  S
C866        H877   1.110       .  S
C866        H878   1.110       .  S
C866        H879   1.106       .  S
C868        C873   1.506       .  S
C868        C869   1.406       .  A
C869        C870   1.405       .  A
C869        H874   1.082       .  S
C870        C871   1.418       .  A
C871        C875   1.508       .  S
C871        C872   1.402       .  A
C872        H876   1.085       .  S
C873        H883   1.111       .  S
C873        H884   1.110       .  S
C873        H885   1.110       .  S
C875        H886   1.110       .  S
C875        H887   1.107       .  S
C875        H888   1.111       .  S
C889        C890   1.398       .  A
C889        C894   1.398       .  A
C889        H899   1.084       .  S
C890        C895   1.490       .  S
C890        C891   1.414       .  A
C891        C896   1.508       .  S
C891        C892   1.408       .  A
C892        C893   1.412       .  A
C892        H897   1.079       .  S
C893        C894   1.427       .  A
C894        C898   1.512       .  S
C895        C900   1.414       .  A
C895        C904   1.401       .  A
C896        H912   1.107       .  S
C896        H913   1.110       .  S
C896        H914   1.111       .  S
C898        H909   1.111       .  S
C898        H910   1.110       .  S
C898        H911   1.103       .  S
C900        C905   1.509       .  S
C900        C901   1.405       .  A
C901        C902   1.410       .  A
C901        H906   1.082       .  S
C902        C903   1.425       .  A
C903        C907   1.509       .  S
C903        C904   1.402       .  A
C904        H908   1.084       .  S
C905        H915   1.111       .  S
C905        H916   1.107       .  S
C905        H917   1.110       .  S
C907        H918   1.110       .  S
C907        H919   1.106       .  S
C907        H920   1.111       .  S
C921        C922   1.400       .  A
C921        C926   1.401       .  A
C921        H931   1.085       .  S
C922        C927   1.486       .  S
C922        C923   1.413       .  A
C923        C928   1.506       .  S
C923        C924   1.407       .  A
C924        C925   1.403       .  A
C924        H929   1.084       .  S
C925        C926   1.418       .  A
C926        C930   1.509       .  S
C927        C932   1.410       .  A
C927        C936   1.403       .  A
C928        H944   1.109       .  S
C928        H945   1.111       .  S
C928        H946   1.111       .  S
C930        H941   1.111       .  S
C930        H942   1.110       .  S
C930        H943   1.107       .  S
C932        C937   1.507       .  S
C932        C933   1.403       .  A
C933        C934   1.406       .  A
C933        H938   1.084       .  S
C934        C935   1.417       .  A
C935        C939   1.505       .  S
C935        C936   1.406       .  A
C936        H940   1.085       .  S
C937        H947   1.111       .  S
C937        H948   1.109       .  S
C937        H949   1.110       .  S
C939        H950   1.110       .  S
C939        H951   1.103       .  S
C939        H952   1.111       .  S
C953        C954   1.403       .  A
C953        C958   1.402       .  A
C953        H963   1.084       .  S
C954        C959   1.489       .  S
C954        C955   1.415       .  A
C955        C960   1.509       .  S
C955        C956   1.403       .  A
C956        C957   1.405       .  A
C956        H961   1.082       .  S
C957        C958   1.417       .  A
C958        C962   1.507       .  S
C959        C964   1.415       .  A
C959        C968   1.402       .  A
C960        H976   1.107       .  S
C960        H977   1.110       .  S
C960        H978   1.111       .  S
C962        H973   1.111       .  S
C962        H974   1.110       .  S
C962        H975   1.108       .  S
C964        C969   1.508       .  S
C964        C965   1.406       .  A
C965        C966   1.406       .  A
C965        H970   1.083       .  S
C966        C967   1.417       .  A
C967        C971   1.509       .  S
C967        C968   1.399       .  A
C968        H972   1.084       .  S
C969        H979   1.111       .  S
C969        H980   1.107       .  S
C969        H981   1.110       .  S
C971        H982   1.110       .  S
C971        H983   1.107       .  S
C971        H984   1.111       .  S
C985        C986   1.400       .  A
C985        C990   1.400       .  A
C985        H995   1.085       .  S
C986        C991   1.481       .  S
C986        C987   1.411       .  A
C987        C992   1.505       .  S
C987        C988   1.406       .  A
C988        C989   1.403       .  A
C988        H993   1.084       .  S
C989        C990   1.414       .  A
C990        C994   1.508       .  S
C991        C996   1.410       .  A
C991       C1000   1.401       .  A
C992       H1008   1.110       .  S
C992       H1009   1.110       .  S
C992       H1010   1.111       .  S
C994       H1005   1.111       .  S
C994       H1006   1.110       .  S
C994       H1007   1.106       .  S
C996       C1001   1.506       .  S
C996        C997   1.404       .  A
C997        C998   1.404       .  A
C997       H1002   1.084       .  S
C998        C999   1.416       .  A
C999       C1003   1.508       .  S
C999       C1000   1.403       .  A
C1000      H1004   1.084       .  S
C1001      H1011   1.111       .  S
C1001      H1012   1.110       .  S
C1001      H1013   1.110       .  S
C1003      H1014   1.110       .  S
C1003      H1015   1.107       .  S
C1003      H1016   1.110       .  S
C1017      C1018   1.401       .  A
C1017      C1022   1.404       .  A
C1017      H1027   1.085       .  S
C1018      C1023   1.485       .  S
C1018      C1019   1.410       .  A
C1019      C1024   1.506       .  S
C1019      C1020   1.407       .  A
C1020      C1021   1.407       .  A
C1020      H1025   1.084       .  S
C1021      C1022   1.420       .  A
C1022      C1026   1.510       .  S
C1023      C1028   1.413       .  A
C1023      C1032   1.400       .  A
C1024      H1040   1.110       .  S
C1024      H1041   1.110       .  S
C1024      H1042   1.111       .  S
C1026      H1037   1.111       .  S
C1026      H1038   1.110       .  S
C1026      H1039   1.104       .  S
C1028      C1033   1.506       .  S
C1028      C1029   1.406       .  A
C1029      C1030   1.404       .  A
C1029      H1034   1.084       .  S
C1030      C1031   1.417       .  A
C1031      C1035   1.506       .  S
C1031      C1032   1.403       .  A
C1032      H1036   1.084       .  S
C1033      H1043   1.111       .  S
C1033      H1044   1.110       .  S
C1033      H1045   1.110       .  S
C1035      H1046   1.110       .  S
C1035      H1047   1.110       .  S
C1035      H1048   1.107       .  S
C1049      C1050   1.399       .  A
C1049      C1054   1.402       .  A
C1049      H1059   1.084       .  S
C1050      C1055   1.480       .  S
C1050      C1051   1.410       .  A
C1051      C1056   1.505       .  S
C1051      C1052   1.405       .  A
C1052      C1053   1.404       .  A
C1052      H1057   1.084       .  S
C1053      C1054   1.418       .  A
C1054      C1058   1.509       .  S
C1055      C1060   1.408       .  A
C1055      C1064   1.400       .  A
C1056      H1072   1.110       .  S
C1056      H1073   1.110       .  S
C1056      H1074   1.111       .  S
C1058      H1069   1.111       .  S
C1058      H1070   1.111       .  S
C1058      H1071   1.110       .  S
C1060      C1065   1.507       .  S
C1060      C1061   1.402       .  A
C1061      C1062   1.409       .  A
C1061      H1066   1.083       .  S
C1062      C1063   1.420       .  A
C1063      C1067   1.507       .  S
C1063      C1064   1.406       .  A
C1064      H1068   1.084       .  S
C1065      H1075   1.111       .  S
C1065      H1076   1.110       .  S
C1065      H1077   1.110       .  S
C1067      H1078   1.110       .  S
C1067      H1079   1.110       .  S
C1067      H1080   1.111       .  S
C1081      C1082   1.395       .  A
C1081      C1086   1.404       .  A
C1081      H1091   1.085       .  S
C1082      C1087   1.477       .  S
C1082      C1083   1.404       .  A
C1083      C1088   1.509       .  S
C1083      C1084   1.400       .  A
C1084      C1085   1.416       .  A
C1084      H1089   1.074       .  S
C1085      C1086   1.430       .  A
C1086      C1090   1.512       .  S
C1087      C1092   1.404       .  A
C1087      C1096   1.393       .  A
C1088      H1104   1.110       .  S
C1088      H1105   1.110       .  S
C1088      H1106   1.111       .  S
C1090      H1101   1.111       .  S
C1090      H1102   1.110       .  S
C1090      H1103   1.102       .  S
C1092      C1097   1.508       .  S
C1092      C1093   1.403       .  A
C1093      C1094   1.416       .  A
C1093      H1098   1.074       .  S
C1094      C1095   1.432       .  A
C1095      C1099   1.512       .  S
C1095      C1096   1.401       .  A
C1096      H1100   1.085       .  S
C1097      H1107   1.111       .  S
C1097      H1108   1.110       .  S
C1097      H1109   1.110       .  S
C1099      H1110   1.110       .  S
C1099      H1111   1.099       .  S
C1099      H1112   1.111       .  S
C1113      C1114   1.402       .  A
C1113      C1118   1.405       .  A
C1113      H1123   1.084       .  S
C1114      C1119   1.477       .  S
C1114      C1115   1.410       .  A
C1115      C1120   1.508       .  S
C1115      C1116   1.399       .  A
C1116      C1117   1.401       .  A
C1116      H1121   1.085       .  S
C1117      C1118   1.415       .  A
C1118      C1122   1.508       .  S
C1119      C1124   1.409       .  A
C1119      C1128   1.400       .  A
C1120      H1136   1.110       .  S
C1120      H1137   1.109       .  S
C1120      H1138   1.111       .  S
C1122      H1133   1.111       .  S
C1122      H1134   1.110       .  S
C1122      H1135   1.108       .  S
C1124      C1129   1.507       .  S
C1124      C1125   1.402       .  A
C1125      C1126   1.405       .  A
C1125      H1130   1.084       .  S
C1126      C1127   1.418       .  A
C1127      C1131   1.507       .  S
C1127      C1128   1.405       .  A
C1128      H1132   1.085       .  S
C1129      H1139   1.111       .  S
C1129      H1140   1.110       .  S
C1129      H1141   1.109       .  S
C1131      H1142   1.110       .  S
C1131      H1143   1.110       .  S
C1131      H1144   1.111       .  S
C1145      C1146   1.402   1_554  A
C1145      C1150   1.408       .  A
C1145      H1155   1.084       .  S
C1146      C1151   1.483   1_556  S
C1146      C1147   1.410       .  A
C1147      C1152   1.508       .  S
C1147      C1148   1.402       .  A
C1148      C1149   1.406       .  A
C1148      H1153   1.084       .  S
C1149      C1150   1.419   1_556  A
C1150      C1154   1.507       .  S
C1151      C1156   1.412       .  A
C1151      C1160   1.396       .  A
C1152      H1168   1.110       .  S
C1152      H1169   1.109       .  S
C1152      H1170   1.111       .  S
C1154      H1165   1.111       .  S
C1154      H1166   1.110       .  S
C1154      H1167   1.111       .  S
C1156      C1161   1.505   1_554  S
C1156      C1157   1.409       .  A
C1157      C1158   1.404       .  A
C1157      H1162   1.084       .  S
C1158      C1159   1.424       .  A
C1159      C1163   1.511       .  S
C1159      C1160   1.399       .  A
C1160      H1164   1.085       .  S
C1161      H1171   1.111       .  S
C1161      H1172   1.110       .  S
C1161      H1173   1.109       .  S
C1163      H1174   1.110       .  S
C1163      H1175   1.105       .  S
C1163      H1176   1.111       .  S
C1177      C1178   1.400       .  A
C1177      C1182   1.401       .  A
C1177      H1187   1.085       .  S
C1178      C1183   1.477       .  S
C1178      C1179   1.409       .  A
C1179      C1184   1.506       .  S
C1179      C1180   1.403       .  A
C1180      C1181   1.404       .  A
C1180      H1185   1.085       .  S
C1181      C1182   1.416       .  A
C1182      C1186   1.508       .  S
C1183      C1188   1.408       .  A
C1183      C1192   1.400       .  A
C1184      H1200   1.110       .  S
C1184      H1201   1.110       .  S
C1184      H1202   1.111       .  S
C1186      H1197   1.110       .  S
C1186      H1198   1.111       .  S
C1186      H1199   1.106       .  S
C1188      C1193   1.507       .  S
C1188      C1189   1.400       .  A
C1189      C1190   1.406       .  A
C1189      H1194   1.084       .  S
C1190      C1191   1.420       .  A
C1191      C1195   1.507       .  S
C1191      C1192   1.405       .  A
C1192      H1196   1.084       .  S
C1193      H1203   1.111       .  S
C1193      H1204   1.110       .  S
C1193      H1205   1.110       .  S
C1195      H1206   1.111       .  S
C1195      H1207   1.110       .  S
C1195      H1208   1.110       .  S
C1209      C1210   1.401       .  A
C1209      C1214   1.408       .  A
C1209      H1219   1.085       .  S
C1210      C1215   1.486       .  S
C1210      C1211   1.410   1_556  A
C1211      C1216   1.508       .  S
C1211      C1212   1.403       .  A
C1212      C1213   1.407       .  A
C1212      H1217   1.084       .  S
C1213      C1214   1.421   1_554  A
C1214      C1218   1.507       .  S
C1215      C1220   1.409       .  A
C1215      C1224   1.402   1_556  A
C1216      H1232   1.110       .  S
C1216      H1233   1.110   1_554  S
C1216      H1234   1.111       .  S
C1218      H1229   1.110       .  S
C1218      H1230   1.111       .  S
C1218      H1231   1.104   1_556  S
C1220      C1225   1.506       .  S
C1220      C1221   1.404       .  A
C1221      C1222   1.409       .  A
C1221      H1226   1.083       .  S
C1222      C1223   1.420       .  A
C1223      C1227   1.507   1_556  S
C1223      C1224   1.408   1_556  A
C1224      H1228   1.084       .  S
C1225      H1235   1.111       .  S
C1225      H1236   1.110       .  S
C1225      H1237   1.110       .  S
C1227      H1238   1.111       .  S
C1227      H1239   1.110       .  S
C1227      H1240   1.110       .  S
C1241      C1242   1.399       .  A
C1241      C1246   1.406       .  A
C1241      H1251   1.085       .  S
C1242      C1247   1.481       .  S
C1242      C1243   1.407       .  A
C1243      C1248   1.507       .  S
C1243      C1244   1.402       .  A
C1244      C1245   1.410       .  A
C1244      H1249   1.084       .  S
C1245      C1246   1.422       .  A
C1246      C1250   1.504       .  S
C1247      C1252   1.409       .  A
C1247      C1256   1.400       .  A
C1248      H1264   1.110       .  S
C1248      H1265   1.110       .  S
C1248      H1266   1.111       .  S
C1250      H1261   1.110       .  S
C1250      H1262   1.111       .  S
C1250      H1263   1.097       .  S
C1252      C1257   1.506       .  S
C1252      C1253   1.404       .  A
C1253      C1254   1.404       .  A
C1253      H1258   1.084       .  S
C1254      C1255   1.419       .  A
C1255      C1259   1.509       .  S
C1255      C1256   1.403       .  A
C1256      H1260   1.085       .  S
C1257      H1267   1.111       .  S
C1257      H1268   1.110       .  S
C1257      H1269   1.110       .  S
C1259      H1270   1.111       .  S
C1259      H1271   1.105       .  S
C1259      H1272   1.110       .  S
C1273      C1274   1.400       .  A
C1273      C1278   1.406       .  A
C1273      H1283   1.084       .  S
C1274      C1279   1.482       .  S
C1274      C1275   1.411       .  A
C1275      C1280   1.507       .  S
C1275      C1276   1.403       .  A
C1276      C1277   1.403       .  A
C1276      H1281   1.080       .  S
C1277      C1278   1.417       .  A
C1278      C1282   1.506       .  S
C1279      C1284   1.409       .  A
C1279      C1288   1.398   1_556  A
C1280      H1296   1.110   1_556  S
C1280      H1297   1.110       .  S
C1280      H1298   1.111       .  S
C1282      H1293   1.111       .  S
C1282      H1294   1.106       .  S
C1282      H1295   1.111       .  S
C1284      C1289   1.506       .  S
C1284      C1285   1.406       .  A
C1285      C1286   1.408   1_556  A
C1285      H1290   1.084       .  S
C1286      C1287   1.422       .  A
C1287      C1291   1.508       .  S
C1287      C1288   1.404       .  A
C1288      H1292   1.084       .  S
C1289      H1299   1.111       .  S
C1289      H1300   1.110       .  S
C1289      H1301   1.110       .  S
C1291      H1302   1.111       .  S
C1291      H1303   1.110       .  S
C1291      H1304   1.111       .  S
C1305      C1306   1.403       .  A
C1305      C1310   1.406       .  A
C1305      H1315   1.084       .  S
C1306      C1311   1.485       .  S
C1306      C1307   1.412       .  A
C1307      C1312   1.507   1_556  S
C1307      C1308   1.401       .  A
C1308      C1309   1.401       .  A
C1308      H1313   1.082       .  S
C1309      C1310   1.416       .  A
C1310      C1314   1.507       .  S
C1311      C1316   1.411   1_556  A
C1311      C1320   1.401       .  A
C1312      H1328   1.109       .  S
C1312      H1329   1.110       .  S
C1312      H1330   1.111       .  S
C1314      H1325   1.110       .  S
C1314      H1326   1.110       .  S
C1314      H1327   1.108       .  S
C1316      C1321   1.506       .  S
C1316      C1317   1.404       .  A
C1317      C1318   1.405       .  A
C1317      H1322   1.084       .  S
C1318      C1319   1.417       .  A
C1319      C1323   1.504       .  S
C1319      C1320   1.406   1_554  A
C1320      H1324   1.084       .  S
C1321      H1331   1.111       .  S
C1321      H1332   1.110   1_554  S
C1321      H1333   1.110       .  S
C1323      H1334   1.107   1_554  S
C1323      H1335   1.105       .  S
C1323      H1336   1.111   1_554  S
C1337      C1338   1.404       .  A
C1337      C1342   1.407       .  A
C1337      H1347   1.084       .  S
C1338      C1343   1.492       .  S
C1338      C1339   1.414       .  A
C1339      C1344   1.507       .  S
C1339      C1340   1.405       .  A
C1340      C1341   1.404       .  A
C1340      H1345   1.084       .  S
C1341      C1342   1.416       .  A
C1342      C1346   1.507       .  S
C1343      C1348   1.415       .  A
C1343      C1352   1.405       .  A
C1344      H1360   1.109       .  S
C1344      H1361   1.110       .  S
C1344      H1362   1.111       .  S
C1346      H1357   1.111       .  S
C1346      H1358   1.108       .  S
C1346      H1359   1.110       .  S
C1348      C1353   1.508       .  S
C1348      C1349   1.403       .  A
C1349      C1350   1.404       .  A
C1349      H1354   1.084       .  S
C1350      C1351   1.416       .  A
C1351      C1355   1.507       .  S
C1351      C1352   1.409       .  A
C1352      H1356   1.083       .  S
C1353      H1363   1.111       .  S
C1353      H1364   1.109       .  S
C1353      H1365   1.110       .  S
C1355      H1366   1.107       .  S
C1355      H1367   1.110       .  S
C1355      H1368   1.111       .  S
C1369      C1370   1.400       .  A
C1369      C1374   1.402       .  A
C1369      H1379   1.085       .  S
C1370      C1375   1.487       .  S
C1370      C1371   1.413       .  A
C1371      C1376   1.506       .  S
C1371      C1372   1.409       .  A
C1372      C1373   1.405       .  A
C1372      H1377   1.084       .  S
C1373      C1374   1.417       .  A
C1374      C1378   1.508       .  S
C1375      C1380   1.412       .  A
C1375      C1384   1.402       .  A
C1376      H1392   1.110       .  S
C1376      H1393   1.108       .  S
C1376      H1394   1.111       .  S
C1378      H1389   1.110       .  S
C1378      H1390   1.111       .  S
C1378      H1391   1.108       .  S
C1380      C1385   1.508       .  S
C1380      C1381   1.405       .  A
C1381      C1382   1.406       .  A
C1381      H1386   1.084       .  S
C1382      C1383   1.417       .  A
C1383      C1387   1.507       .  S
C1383      C1384   1.407       .  A
C1384      H1388   1.084       .  S
C1385      H1395   1.111       .  S
C1385      H1396   1.110       .  S
C1385      H1397   1.108       .  S
C1387      H1398   1.111       .  S
C1387      H1399   1.110       .  S
C1387      H1400   1.106       .  S
C1401      C1402   1.395       .  A
C1401      C1406   1.404       .  A
C1401      H1411   1.085       .  S
C1402      C1407   1.480   1_556  S
C1402      C1403   1.406       .  A
C1403      C1408   1.509   1_556  S
C1403      C1404   1.403       .  A
C1404      C1405   1.415       .  A
C1404      H1409   1.075       .  S
C1405      C1406   1.432       .  A
C1406      C1410   1.511       .  S
C1407      C1412   1.406       .  A
C1407      C1416   1.395   1_554  A
C1408      H1424   1.110   1_554  S
C1408      H1425   1.109       .  S
C1408      H1426   1.111       .  S
C1410      H1421   1.110       .  S
C1410      H1422   1.101       .  S
C1410      H1423   1.111       .  S
C1412      C1417   1.508       .  S
C1412      C1413   1.404       .  A
C1413      C1414   1.414       .  A
C1413      H1418   1.075       .  S
C1414      C1415   1.433       .  A
C1415      C1419   1.515   1_554  S
C1415      C1416   1.404   1_554  A
C1416      H1420   1.084       .  S
C1417      H1427   1.111       .  S
C1417      H1428   1.110       .  S
C1417      H1429   1.109       .  S
C1419      H1430   1.107       .  S
C1419      H1431   1.105       .  S
C1419      H1432   1.111       .  S
C1433      C1434   1.400       .  A
C1433      C1438   1.401       .  A
C1433      H1443   1.085       .  S
C1434      C1439   1.479   1_554  S
C1434      C1435   1.410       .  A
C1435      C1440   1.506       .  S
C1435      C1436   1.405       .  A
C1436      C1437   1.405       .  A
C1436      H1441   1.083       .  S
C1437      C1438   1.418       .  A
C1438      C1442   1.508       .  S
C1439      C1444   1.413       .  A
C1439      C1448   1.395   1_556  A
C1440      H1456   1.111       .  S
C1440      H1457   1.109   1_554  S
C1440      H1458   1.111       .  S
C1442      H1453   1.110       .  S
C1442      H1454   1.111       .  S
C1442      H1455   1.108       .  S
C1444      C1449   1.506       .  S
C1444      C1445   1.408       .  A
C1445      C1446   1.402       .  A
C1445      H1450   1.084       .  S
C1446      C1447   1.422       .  A
C1447      C1451   1.510   1_556  S
C1447      C1448   1.397   1_556  A
C1448      H1452   1.085       .  S
C1449      H1459   1.111       .  S
C1449      H1460   1.110       .  S
C1449      H1461   1.109       .  S
C1451      H1462   1.110       .  S
C1451      H1463   1.105       .  S
C1451      H1464   1.111       .  S
C1465      C1466   1.398       .  A
C1465      C1470   1.401       .  A
C1465      H1475   1.084       .  S
C1466      C1471   1.475       .  S
C1466      C1467   1.409       .  A
C1467      C1472   1.507       .  S
C1467      C1468   1.403       .  A
C1468      C1469   1.406       .  A
C1468      H1473   1.085       .  S
C1469      C1470   1.416       .  A
C1470      C1474   1.506       .  S
C1471      C1476   1.410       .  A
C1471      C1480   1.399       .  A
C1472      H1488   1.110       .  S
C1472      H1489   1.109       .  S
C1472      H1490   1.111       .  S
C1474      H1485   1.111       .  S
C1474      H1486   1.110       .  S
C1474      H1487   1.108       .  S
C1476      C1481   1.508       .  S
C1476      C1477   1.402       .  A
C1477      C1478   1.405       .  A
C1477      H1482   1.084       .  S
C1478      C1479   1.418       .  A
C1479      C1483   1.506       .  S
C1479      C1480   1.403       .  A
C1480      H1484   1.084       .  S
C1481      H1491   1.111       .  S
C1481      H1492   1.110       .  S
C1481      H1493   1.109       .  S
C1483      H1494   1.110       .  S
C1483      H1495   1.110       .  S
C1483      H1496   1.111       .  S
C1497      C1498   1.401       .  A
C1497      C1502   1.400       .  A
C1497      H1507   1.085   1_554  S
C1498      C1503   1.479       .  S
C1498      C1499   1.411       .  A
C1499      C1504   1.505       .  S
C1499      C1500   1.404       .  A
C1500      C1501   1.402       .  A
C1500      H1505   1.085       .  S
C1501      C1502   1.414       .  A
C1502      C1506   1.508   1_554  S
C1503      C1508   1.410       .  A
C1503      C1512   1.400       .  A
C1504      H1520   1.110       .  S
C1504      H1521   1.110       .  S
C1504      H1522   1.111       .  S
C1506      H1517   1.110       .  S
C1506      H1518   1.111       .  S
C1506      H1519   1.106       .  S
C1508      C1513   1.507   1_554  S
C1508      C1509   1.402   1_554  A
C1509      C1510   1.403   1_556  A
C1509      H1514   1.084       .  S
C1510      C1511   1.417       .  A
C1511      C1515   1.509       .  S
C1511      C1512   1.402       .  A
C1512      H1516   1.085       .  S
C1513      H1523   1.111       .  S
C1513      H1524   1.110       .  S
C1513      H1525   1.110   1_556  S
C1515      H1526   1.111       .  S
C1515      H1527   1.105       .  S
C1515      H1528   1.110       .  S
C1529      C1530   1.401       .  A
C1529      C1534   1.403       .  A
C1529      H1539   1.085       .  S
C1530      C1535   1.478       .  S
C1530      C1531   1.408       .  A
C1531      C1536   1.506       .  S
C1531      C1532   1.401       .  A
C1532      C1533   1.405       .  A
C1532      H1537   1.085       .  S
C1533      C1534   1.417       .  A
C1534      C1538   1.508       .  S
C1535      C1540   1.409       .  A
C1535      C1544   1.400       .  A
C1536      H1552   1.110       .  S
C1536      H1553   1.110       .  S
C1536      H1554   1.111       .  S
C1538      H1549   1.110       .  S
C1538      H1550   1.111       .  S
C1538      H1551   1.106       .  S
C1540      C1545   1.507       .  S
C1540      C1541   1.401       .  A
C1541      C1542   1.403       .  A
C1541      H1546   1.084       .  S
C1542      C1543   1.420       .  A
C1543      C1547   1.509       .  S
C1543      C1544   1.404       .  A
C1544      H1548   1.084       .  S
C1545      H1555   1.111       .  S
C1545      H1556   1.110       .  S
C1545      H1557   1.110       .  S
C1547      H1558   1.111       .  S
C1547      H1559   1.105       .  S
C1547      H1560   1.110       .  S
C1561      C1562   1.396       .  A
C1561      C1566   1.404       .  A
C1561      H1571   1.085       .  S
C1562      C1567   1.485       .  S
C1562      C1563   1.407       .  A
C1563      C1568   1.505       .  S
C1563      C1564   1.407       .  A
C1564      C1565   1.412       .  A
C1564      H1569   1.084       .  S
C1565      C1566   1.426       .  A
C1566      C1570   1.504       .  S
C1567      C1572   1.409   1_556  A
C1567      C1576   1.401       .  A
C1568      H1584   1.110       .  S
C1568      H1585   1.110       .  S
C1568      H1586   1.111       .  S
C1570      H1581   1.111       .  S
C1570      H1582   1.105       .  S
C1570      H1583   1.100       .  S
C1572      C1577   1.508       .  S
C1572      C1573   1.402       .  A
C1573      C1574   1.408       .  A
C1573      H1578   1.084       .  S
C1574      C1575   1.422   1_554  A
C1575      C1579   1.507       .  S
C1575      C1576   1.410       .  A
C1576      H1580   1.084       .  S
C1577      H1587   1.111       .  S
C1577      H1588   1.110       .  S
C1577      H1589   1.110       .  S
C1579      H1590   1.110       .  S
C1579      H1591   1.110       .  S
C1579      H1592   1.111       .  S
C1593      C1594   1.399       .  A
C1593      C1598   1.404       .  A
C1593      H1603   1.084       .  S
C1594      C1599   1.485       .  S
C1594      C1595   1.410       .  A
C1595      C1600   1.505   1_554  S
C1595      C1596   1.407       .  A
C1596      C1597   1.407       .  A
C1596      H1601   1.084       .  S
C1597      C1598   1.420       .  A
C1598      C1602   1.508       .  S
C1599      C1604   1.410       .  A
C1599      C1608   1.398   1_554  A
C1600      H1616   1.110       .  S
C1600      H1617   1.110   1_556  S
C1600      H1618   1.111       .  S
C1602      H1613   1.109       .  S
C1602      H1614   1.111       .  S
C1602      H1615   1.111       .  S
C1604      C1609   1.506       .  S
C1604      C1605   1.406       .  A
C1605      C1606   1.407   1_554  A
C1605      H1610   1.083       .  S
C1606      C1607   1.423       .  A
C1607      C1611   1.507       .  S
C1607      C1608   1.406       .  A
C1608      H1612   1.084       .  S
C1609      H1619   1.111       .  S
C1609      H1620   1.110       .  S
C1609      H1621   1.110       .  S
C1611      H1622   1.110       .  S
C1611      H1623   1.108       .  S
C1611      H1624   1.111       .  S
C1625      C1626   1.398       .  A
C1625      C1630   1.407       .  A
C1625      H1635   1.085       .  S
C1626      C1631   1.488       .  S
C1626      C1627   1.406       .  A
C1627      C1632   1.509       .  S
C1627      C1628   1.404       .  A
C1628      C1629   1.416       .  A
C1628      H1633   1.073       .  S
C1629      C1630   1.433       .  A
C1630      C1634   1.512       .  S
C1631      C1636   1.407       .  A
C1631      C1640   1.398       .  A
C1632      H1648   1.109       .  S
C1632      H1649   1.111       .  S
C1632      H1650   1.111       .  S
C1634      H1645   1.111       .  S
C1634      H1646   1.110       .  S
C1634      H1647   1.101       .  S
C1636      C1641   1.509       .  S
C1636      C1637   1.404       .  A
C1637      C1638   1.415       .  A
C1637      H1642   1.075       .  S
C1638      C1639   1.432       .  A
C1639      C1643   1.512       .  S
C1639      C1640   1.407       .  A
C1640      H1644   1.085       .  S
C1641      H1651   1.111       .  S
C1641      H1652   1.109       .  S
C1641      H1653   1.110       .  S
C1643      H1654   1.110       .  S
C1643      H1655   1.102       .  S
C1643      H1656   1.111       .  S
C1657      C1658   1.402       .  A
C1657      C1662   1.406       .  A
C1657      H1667   1.084       .  S
C1658      C1663   1.490   1_554  S
C1658      C1659   1.413   1_554  A
C1659      C1664   1.506       .  S
C1659      C1660   1.407   1_556  A
C1660      C1661   1.404       .  A
C1660      H1665   1.084       .  S
C1661      C1662   1.418       .  A
C1662      C1666   1.507       .  S
C1663      C1668   1.410       .  A
C1663      C1672   1.405   1_556  A
C1664      H1680   1.110       .  S
C1664      H1681   1.110       .  S
C1664      H1682   1.111       .  S
C1666      H1677   1.110       .  S
C1666      H1678   1.110       .  S
C1666      H1679   1.108       .  S
C1668      C1673   1.506       .  S
C1668      C1669   1.404       .  A
C1669      C1670   1.408       .  A
C1669      H1674   1.084       .  S
C1670      C1671   1.416       .  A
C1671      C1675   1.506   1_556  S
C1671      C1672   1.410   1_556  A
C1672      H1676   1.084       .  S
C1673      H1683   1.111       .  S
C1673      H1684   1.110       .  S
C1673      H1685   1.110       .  S
C1675      H1686   1.107       .  S
C1675      H1687   1.110   1_554  S
C1675      H1688   1.111       .  S
C1689      C1690   1.405       .  A
C1689      C1694   1.410       .  A
C1689      H1699   1.084       .  S
C1690      C1695   1.489       .  S
C1690      C1691   1.411       .  A
C1691      C1696   1.507       .  S
C1691      C1692   1.403       .  A
C1692      C1693   1.405       .  A
C1692      H1697   1.084       .  S
C1693      C1694   1.414       .  A
C1694      C1698   1.505       .  S
C1695      C1700   1.411       .  A
C1695      C1704   1.401       .  A
C1696      H1712   1.110       .  S
C1696      H1713   1.109       .  S
C1696      H1714   1.111       .  S
C1698      H1709   1.108       .  S
C1698      H1710   1.111       .  S
C1698      H1711   1.109       .  S
C1700      C1705   1.506       .  S
C1700      C1701   1.409       .  A
C1701      C1702   1.407       .  A
C1701      H1706   1.082       .  S
C1702      C1703   1.420       .  A
C1703      C1707   1.508       .  S
C1703      C1704   1.405       .  A
C1704      H1708   1.084       .  S
C1705      H1715   1.111       .  S
C1705      H1716   1.110       .  S
C1705      H1717   1.109       .  S
C1707      H1718   1.111       .  S
C1707      H1719   1.107       .  S
C1707      H1720   1.110       .  S
C1721      C1722   1.400       .  A
C1721      C1726   1.410       .  A
C1721      H1731   1.084       .  S
C1722      C1727   1.485   1_556  S
C1722      C1723   1.406       .  A
C1723      C1728   1.509       .  S
C1723      C1724   1.400       .  A
C1724      C1725   1.415       .  A
C1724      H1729   1.079       .  S
C1725      C1726   1.427       .  A
C1726      C1730   1.508       .  S
C1727      C1732   1.407       .  A
C1727      C1736   1.394   1_554  A
C1728      H1744   1.110       .  S
C1728      H1745   1.110   1_556  S
C1728      H1746   1.111       .  S
C1730      H1741   1.111       .  S
C1730      H1742   1.105       .  S
C1730      H1743   1.110       .  S
C1732      C1737   1.507       .  S
C1732      C1733   1.407       .  A
C1733      C1734   1.415       .  A
C1733      H1738   1.076       .  S
C1734      C1735   1.434   1_554  A
C1735      C1739   1.511       .  S
C1735      C1736   1.404       .  A
C1736      H1740   1.085       .  S
C1737      H1747   1.110       .  S
C1737      H1748   1.111       .  S
C1737      H1749   1.110       .  S
C1739      H1750   1.111       .  S
C1739      H1751   1.099       .  S
C1739      H1752   1.111       .  S
C1753      C1754   1.405       .  A
C1753      C1758   1.406       .  A
C1753      H1763   1.084       .  S
C1754      C1759   1.493       .  S
C1754      C1755   1.416       .  A
C1755      C1760   1.507   1_554  S
C1755      C1756   1.406       .  A
C1756      C1757   1.401       .  A
C1756      H1761   1.083       .  S
C1757      C1758   1.412       .  A
C1758      C1762   1.506       .  S
C1759      C1764   1.414   1_554  A
C1759      C1768   1.403       .  A
C1760      H1776   1.109   1_556  S
C1760      H1777   1.110       .  S
C1760      H1778   1.111       .  S
C1762      H1773   1.111       .  S
C1762      H1774   1.110       .  S
C1762      H1775   1.109       .  S
C1764      C1769   1.508       .  S
C1764      C1765   1.404       .  A
C1765      C1766   1.405       .  A
C1765      H1770   1.084       .  S
C1766      C1767   1.419       .  A
C1767      C1771   1.505       .  S
C1767      C1768   1.409   1_556  A
C1768      H1772   1.084       .  S
C1769      H1779   1.111       .  S
C1769      H1780   1.109   1_556  S
C1769      H1781   1.110       .  S
C1771      H1782   1.106   1_556  S
C1771      H1783   1.108       .  S
C1771      H1784   1.111   1_556  S
C1785      C1786   1.399       .  A
C1785      C1790   1.404       .  A
C1785      H1795   1.084       .  S
C1786      C1791   1.482       .  S
C1786      C1787   1.409       .  A
C1787      C1792   1.507       .  S
C1787      C1788   1.406       .  A
C1788      C1789   1.410       .  A
C1788      H1793   1.083       .  S
C1789      C1790   1.421       .  A
C1790      C1794   1.508       .  S
C1791      C1796   1.410       .  A
C1791      C1800   1.400       .  A
C1792      H1808   1.110       .  S
C1792      H1809   1.109       .  S
C1792      H1810   1.111       .  S
C1794      H1805   1.111       .  S
C1794      H1806   1.111       .  S
C1794      H1807   1.110       .  S
C1796      C1801   1.507       .  S
C1796      C1797   1.404       .  A
C1797      C1798   1.408       .  A
C1797      H1802   1.084       .  S
C1798      C1799   1.421       .  A
C1799      C1803   1.507       .  S
C1799      C1800   1.406       .  A
C1800      H1804   1.084       .  S
C1801      H1811   1.111       .  S
C1801      H1812   1.110       .  S
C1801      H1813   1.109       .  S
C1803      H1814   1.110       .  S
C1803      H1815   1.110       .  S
C1803      H1816   1.111       .  S
C1817      C1818   1.403       .  A
C1817      C1822   1.408       .  A
C1817      H1827   1.084   1_556  S
C1818      C1823   1.481       .  S
C1818      C1819   1.409       .  A
C1819      C1824   1.507       .  S
C1819      C1820   1.398       .  A
C1820      C1821   1.405       .  A
C1820      H1825   1.084       .  S
C1821      C1822   1.416       .  A
C1822      C1826   1.506       .  S
C1823      C1828   1.411       .  A
C1823      C1832   1.399   1_556  A
C1824      H1840   1.110       .  S
C1824      H1841   1.110       .  S
C1824      H1842   1.111       .  S
C1826      H1837   1.110       .  S
C1826      H1838   1.110   1_556  S
C1826      H1839   1.105       .  S
C1828      C1833   1.506       .  S
C1828      C1829   1.407       .  A
C1829      C1830   1.405   1_556  A
C1829      H1834   1.084       .  S
C1830      C1831   1.419       .  A
C1831      C1835   1.509       .  S
C1831      C1832   1.401       .  A
C1832      H1836   1.085       .  S
C1833      H1843   1.111       .  S
C1833      H1844   1.110       .  S
C1833      H1845   1.110       .  S
C1835      H1846   1.110       .  S
C1835      H1847   1.104       .  S
C1835      H1848   1.111       .  S
C1849      C1850   1.400       .  A
C1849      C1854   1.403       .  A
C1849      H1859   1.084       .  S
C1850      C1855   1.479       .  S
C1850      C1851   1.410       .  A
C1851      C1856   1.506       .  S
C1851      C1852   1.403       .  A
C1852      C1853   1.404       .  A
C1852      H1857   1.084       .  S
C1853      C1854   1.415       .  A
C1854      C1858   1.507       .  S
C1855      C1860   1.409       .  A
C1855      C1864   1.400       .  A
C1856      H1872   1.110       .  S
C1856      H1873   1.110       .  S
C1856      H1874   1.111       .  S
C1858      H1869   1.111       .  S
C1858      H1870   1.109       .  S
C1858      H1871   1.109       .  S
C1860      C1865   1.507       .  S
C1860      C1861   1.402       .  A
C1861      C1862   1.405       .  A
C1861      H1866   1.084       .  S
C1862      C1863   1.417       .  A
C1863      C1867   1.507       .  S
C1863      C1864   1.406       .  A
C1864      H1868   1.084       .  S
C1865      H1875   1.111       .  S
C1865      H1876   1.110       .  S
C1865      H1877   1.110       .  S
C1867      H1878   1.109       .  S
C1867      H1879   1.111       .  S
C1867      H1880   1.111       .  S
C1881      C1882   1.402       .  A
C1881      C1886   1.403       .  A
C1881      H1891   1.084       .  S
C1882      C1887   1.480       .  S
C1882      C1883   1.410       .  A
C1883      C1888   1.506       .  S
C1883      C1884   1.402       .  A
C1884      C1885   1.402       .  A
C1884      H1889   1.084   1_554  S
C1885      C1886   1.415       .  A
C1886      C1890   1.508       .  S
C1887      C1892   1.409       .  A
C1887      C1896   1.400       .  A
C1888      H1904   1.110   1_554  S
C1888      H1905   1.110       .  S
C1888      H1906   1.111       .  S
C1890      H1901   1.110       .  S
C1890      H1902   1.111       .  S
C1890      H1903   1.107       .  S
C1892      C1897   1.505       .  S
C1892      C1893   1.404       .  A
C1893      C1894   1.404       .  A
C1893      H1898   1.084       .  S
C1894      C1895   1.418       .  A
C1895      C1899   1.508   1_554  S
C1895      C1896   1.403       .  A
C1896      H1900   1.084   1_554  S
C1897      H1907   1.111       .  S
C1897      H1908   1.110       .  S
C1897      H1909   1.110       .  S
C1899      H1910   1.111       .  S
C1899      H1911   1.109       .  S
C1899      H1912   1.107       .  S
C1913      C1914   1.398   1_556  A
C1913      C1918   1.405       .  A
C1913      H1923   1.084       .  S
C1914      C1919   1.488       .  S
C1914      C1915   1.411       .  A
C1915      C1920   1.506       .  S
C1915      C1916   1.409       .  A
C1916      C1917   1.408   1_554  A
C1916      H1921   1.084       .  S
C1917      C1918   1.424       .  A
C1918      C1922   1.508       .  S
C1919      C1924   1.411   1_554  A
C1919      C1928   1.398       .  A
C1920      H1936   1.110       .  S
C1920      H1937   1.110       .  S
C1920      H1938   1.111       .  S
C1922      H1933   1.111       .  S
C1922      H1934   1.110       .  S
C1922      H1935   1.109       .  S
C1924      C1929   1.505       .  S
C1924      C1925   1.409   1_556  A
C1925      C1926   1.408       .  A
C1925      H1930   1.084   1_554  S
C1926      C1927   1.423       .  A
C1927      C1931   1.508       .  S
C1927      C1928   1.404       .  A
C1928      H1932   1.085       .  S
C1929      H1939   1.111       .  S
C1929      H1940   1.110       .  S
C1929      H1941   1.111       .  S
C1931      H1942   1.109       .  S
C1931      H1943   1.110       .  S
C1931      H1944   1.111       .  S
C1945      C1946   1.400   1_655  A
C1945      C1950   1.406       .  A
C1945      H1955   1.085   1_655  S
C1946      C1951   1.484       .  S
C1946      C1947   1.410   1_455  A
C1947      C1952   1.506       .  S
C1947      C1948   1.404       .  A
C1948      C1949   1.406       .  A
C1948      H1953   1.084       .  S
C1949      C1950   1.420       .  A
C1950      C1954   1.507       .  S
C1951      C1956   1.411       .  A
C1951      C1960   1.399       .  A
C1952      H1968   1.110   1_655  S
C1952      H1969   1.110   1_654  S
C1952      H1970   1.111   1_554  S
C1954      H1965   1.111       .  S
C1954      H1966   1.111       .  S
C1954      H1967   1.110       .  S
C1956      C1961   1.505   1_554  S
C1956      C1957   1.408       .  A
C1957      C1958   1.406       .  A
C1957      H1962   1.083   1_554  S
C1958      C1959   1.420       .  A
C1959      C1963   1.510       .  S
C1959      C1960   1.401       .  A
C1960      H1964   1.085       .  S
C1961      H1971   1.111       .  S
C1961      H1972   1.110       .  S
C1961      H1973   1.110       .  S
C1963      H1974   1.111       .  S
C1963      H1975   1.106       .  S
C1963      H1976   1.110       .  S
C1977      C1978   1.402   1_554  A
C1977      C1982   1.405       .  A
C1977      H1987   1.084       .  S
C1978      C1983   1.484       .  S
C1978      C1979   1.410       .  A
C1979      C1984   1.506       .  S
C1979      C1980   1.405       .  A
C1980      C1981   1.406   1_556  A
C1980      H1985   1.084       .  S
C1981      C1982   1.417       .  A
C1982      C1986   1.508       .  S
C1983      C1988   1.409       .  A
C1983      C1992   1.401       .  A
C1984      H2000   1.110       .  S
C1984      H2001   1.110       .  S
C1984      H2002   1.111       .  S
C1986      H1997   1.111       .  S
C1986      H1998   1.110       .  S
C1986      H1999   1.106       .  S
C1988      C1993   1.507       .  S
C1988      C1989   1.405       .  A
C1989      C1990   1.403       .  A
C1989      H1994   1.073       .  S
C1990      C1991   1.419       .  A
C1991      C1995   1.508   1_556  S
C1991      C1992   1.406       .  A
C1992      H1996   1.084   1_556  S
C1993      H2003   1.111       .  S
C1993      H2004   1.110       .  S
C1993      H2005   1.110       .  S
C1995      H2006   1.110       .  S
C1995      H2007   1.106       .  S
C1995      H2008   1.111       .  S
C2009      C2010   1.400       .  A
C2009      C2014   1.403       .  A
C2009      H2019   1.084       .  S
C2010      C2015   1.486       .  S
C2010      C2011   1.411       .  A
C2011      C2016   1.506       .  S
C2011      C2012   1.407       .  A
C2012      C2013   1.408       .  A
C2012      H2017   1.084       .  S
C2013      C2014   1.422       .  A
C2014      C2018   1.509       .  S
C2015      C2020   1.412       .  A
C2015      C2024   1.401       .  A
C2016      H2032   1.109       .  S
C2016      H2033   1.110   1_556  S
C2016      H2034   1.111   1_556  S
C2018      H2029   1.111       .  S
C2018      H2030   1.110       .  S
C2018      H2031   1.110       .  S
C2020      C2025   1.507   1_556  S
C2020      C2021   1.405       .  A
C2021      C2022   1.404       .  A
C2021      H2026   1.084   1_556  S
C2022      C2023   1.420       .  A
C2023      C2027   1.510       .  S
C2023      C2024   1.403       .  A
C2024      H2028   1.085       .  S
C2025      H2035   1.111       .  S
C2025      H2036   1.109       .  S
C2025      H2037   1.110       .  S
C2027      H2038   1.111       .  S
C2027      H2039   1.104       .  S
C2027      H2040   1.110       .  S
C2041      C2042   1.400   1_556  A
C2041      C2046   1.404       .  A
C2041      H2051   1.084       .  S
C2042      C2047   1.481       .  S
C2042      C2043   1.411       .  A
C2043      C2048   1.507       .  S
C2043      C2044   1.403       .  A
C2044      C2045   1.404   1_554  A
C2044      H2049   1.084       .  S
C2045      C2046   1.417       .  A
C2046      C2050   1.507       .  S
C2047      C2052   1.411   1_554  A
C2047      C2056   1.400       .  A
C2048      H2064   1.110       .  S
C2048      H2065   1.110       .  S
C2048      H2066   1.111       .  S
C2050      H2061   1.110       .  S
C2050      H2062   1.111       .  S
C2050      H2063   1.107       .  S
C2052      C2057   1.507       .  S
C2052      C2053   1.403       .  A
C2053      C2054   1.404   1_556  A
C2053      H2058   1.084       .  S
C2054      C2055   1.417       .  A
C2055      C2059   1.507       .  S
C2055      C2056   1.403       .  A
C2056      H2060   1.085       .  S
C2057      H2067   1.111       .  S
C2057      H2068   1.110       .  S
C2057      H2069   1.110       .  S
C2059      H2070   1.111       .  S
C2059      H2071   1.107       .  S
C2059      H2072   1.110       .  S
C2073      C2074   1.399       .  A
C2073      C2078   1.401       .  A
C2073      H2083   1.085       .  S
C2074      C2079   1.486   1_554  S
C2074      C2075   1.412       .  A
C2075      C2080   1.505   1_554  S
C2075      C2076   1.409       .  A
C2076      C2077   1.404       .  A
C2076      H2081   1.084       .  S
C2077      C2078   1.419       .  A
C2078      C2082   1.507       .  S
C2079      C2084   1.410   1_556  A
C2079      C2088   1.400       .  A
C2080      H2096   1.110       .  S
C2080      H2097   1.110   1_556  S
C2080      H2098   1.111       .  S
C2082      H2093   1.110       .  S
C2082      H2094   1.111       .  S
C2082      H2095   1.102       .  S
C2084      C2089   1.507       .  S
C2084      C2085   1.405       .  A
C2085      C2086   1.408   1_554  A
C2085      H2090   1.083       .  S
C2086      C2087   1.423       .  A
C2087      C2091   1.508       .  S
C2087      C2088   1.408       .  A
C2088      H2092   1.084       .  S
C2089      H2099   1.111       .  S
C2089      H2100   1.110       .  S
C2089      H2101   1.110       .  S
C2091      H2102   1.111       .  S
C2091      H2103   1.110       .  S
C2091      H2104   1.110       .  S
C2105      C2106   1.399   1_554  A
C2105      C2110   1.401       .  A
C2105      H2115   1.085       .  S
C2106      C2111   1.479       .  S
C2106      C2107   1.409       .  A
C2107      C2112   1.507       .  S
C2107      C2108   1.404       .  A
C2108      C2109   1.408   1_556  A
C2108      H2113   1.082       .  S
C2109      C2110   1.420       .  A
C2110      C2114   1.507       .  S
C2111      C2116   1.413       .  A
C2111      C2120   1.402       .  A
C2112      H2128   1.110       .  S
C2112      H2129   1.107       .  S
C2112      H2130   1.111       .  S
C2114      H2125   1.110       .  S
C2114      H2126   1.111       .  S
C2114      H2127   1.104       .  S
C2116      C2121   1.508   1_556  S
C2116      C2117   1.403       .  A
C2117      C2118   1.401       .  A
C2117      H2122   1.082       .  S
C2118      C2119   1.413       .  A
C2119      C2123   1.507       .  S
C2119      C2120   1.402       .  A
C2120      H2124   1.085       .  S
C2121      H2131   1.111       .  S
C2121      H2132   1.110       .  S
C2121      H2133   1.107   1_554  S
C2123      H2134   1.110       .  S
C2123      H2135   1.108       .  S
C2123      H2136   1.110       .  S
C2137      C2138   1.398   1_554  A
C2137      C2142   1.399       .  A
C2137      H2147   1.085       .  S
C2138      C2143   1.483       .  S
C2138      C2139   1.412       .  A
C2139      C2144   1.505       .  S
C2139      C2140   1.409       .  A
C2140      C2141   1.404   1_556  A
C2140      H2145   1.084       .  S
C2141      C2142   1.420       .  A
C2142      C2146   1.508       .  S
C2143      C2148   1.408       .  A
C2143      C2152   1.403       .  A
C2144      H2160   1.110       .  S
C2144      H2161   1.110       .  S
C2144      H2162   1.111       .  S
C2146      H2157   1.111       .  S
C2146      H2158   1.110       .  S
C2146      H2159   1.104       .  S
C2148      C2153   1.508       .  S
C2148      C2149   1.401       .  A
C2149      C2150   1.409       .  A
C2149      H2154   1.084       .  S
C2150      C2151   1.417       .  A
C2151      C2155   1.506       .  S
C2151      C2152   1.408       .  A
C2152      H2156   1.084       .  S
C2153      H2163   1.111       .  S
C2153      H2164   1.109       .  S
C2153      H2165   1.111       .  S
C2155      H2166   1.110   1_556  S
C2155      H2167   1.104       .  S
C2155      H2168   1.111       .  S
C2169      C2170   1.393       .  A
C2169      C2174   1.402       .  A
C2169      H2179   1.085       .  S
C2170      C2175   1.483       .  S
C2170      C2171   1.408   1_556  A
C2171      C2176   1.506       .  S
C2171      C2172   1.408       .  A
C2172      C2173   1.408       .  A
C2172      H2177   1.073       .  S
C2173      C2174   1.429   1_554  A
C2174      C2178   1.504       .  S
C2175      C2180   1.412       .  A
C2175      C2184   1.401       .  A
C2176      H2192   1.110       .  S
C2176      H2193   1.108       .  S
C2176      H2194   1.111       .  S
C2178      H2189   1.104       .  S
C2178      H2190   1.111       .  S
C2178      H2191   1.106       .  S
C2180      C2185   1.506       .  S
C2180      C2181   1.406       .  A
C2181      C2182   1.402       .  A
C2181      H2186   1.084       .  S
C2182      C2183   1.418       .  A
C2183      C2187   1.509       .  S
C2183      C2184   1.401       .  A
C2184      H2188   1.085       .  S
C2185      H2195   1.111       .  S
C2185      H2196   1.110       .  S
C2185      H2197   1.108   1_556  S
C2187      H2198   1.110       .  S
C2187      H2199   1.108       .  S
C2187      H2200   1.110       .  S
C2201      C2202   1.401   1_554  A
C2201      C2206   1.407       .  A
C2201      H2211   1.084       .  S
C2202      C2207   1.486   1_545  S
C2202      C2203   1.410       .  A
C2203      C2208   1.507       .  S
C2203      C2204   1.405       .  A
C2204      C2205   1.409       .  A
C2204      H2209   1.084       .  S
C2205      C2206   1.421   1_556  A
C2206      C2210   1.507       .  S
C2207      C2212   1.410       .  A
C2207      C2216   1.402   1_556  A
C2208      H2224   1.110   1_545  S
C2208      H2225   1.110   1_545  S
C2208      H2226   1.111       .  S
C2210      H2221   1.110       .  S
C2210      H2222   1.111       .  S
C2210      H2223   1.110       .  S
C2212      C2217   1.508       .  S
C2212      C2213   1.403       .  A
C2213      C2214   1.408       .  A
C2213      H2218   1.084       .  S
C2214      C2215   1.419   1_556  A
C2215      C2219   1.506       .  S
C2215      C2216   1.409       .  A
C2216      H2220   1.084       .  S
C2217      H2227   1.111       .  S
C2217      H2228   1.110       .  S
C2217      H2229   1.111       .  S
C2219      H2230   1.111       .  S
C2219      H2231   1.110       .  S
C2219      H2232   1.110   1_554  S
C2233      C2234   1.400   1_556  A
C2233      C2238   1.407       .  A
C2233      H2243   1.084       .  S
C2234      C2239   1.483       .  S
C2234      C2235   1.408       .  A
C2235      C2240   1.507       .  S
C2235      C2236   1.404       .  A
C2236      C2237   1.408   1_554  A
C2236      H2241   1.083       .  S
C2237      C2238   1.423       .  A
C2238      C2242   1.508       .  S
C2239      C2244   1.410       .  A
C2239      C2248   1.399       .  A
C2240      H2256   1.110       .  S
C2240      H2257   1.109       .  S
C2240      H2258   1.111       .  S
C2242      H2253   1.111       .  S
C2242      H2254   1.110       .  S
C2242      H2255   1.110       .  S
C2244      C2249   1.506       .  S
C2244      C2245   1.407       .  A
C2245      C2246   1.407       .  A
C2245      H2250   1.084       .  S
C2246      C2247   1.418       .  A
C2247      C2251   1.504       .  S
C2247      C2248   1.403       .  A
C2248      H2252   1.084       .  S
C2249      H2259   1.111       .  S
C2249      H2260   1.110       .  S
C2249      H2261   1.109       .  S
C2251      H2262   1.111   1_554  S
C2251      H2263   1.106   1_554  S
C2251      H2264   1.106       .  S
C2265      C2266   1.403       .  A
C2265      C2270   1.403       .  A
C2265      H2275   1.084       .  S
C2266      C2271   1.490       .  S
C2266      C2267   1.414   1_554  A
C2267      C2272   1.506       .  S
C2267      C2268   1.407       .  A
C2268      C2269   1.402   1_556  A
C2268      H2273   1.084       .  S
C2269      C2270   1.415       .  A
C2270      C2274   1.509       .  S
C2271      C2276   1.411       .  A
C2271      C2280   1.401       .  A
C2272      H2288   1.109       .  S
C2272      H2289   1.110       .  S
C2272      H2290   1.111       .  S
C2274      H2285   1.110       .  S
C2274      H2286   1.110       .  S
C2274      H2287   1.107       .  S
C2276      C2281   1.507       .  S
C2276      C2277   1.408       .  A
C2277      C2278   1.409       .  A
C2277      H2282   1.083       .  S
C2278      C2279   1.422       .  A
C2279      C2283   1.508       .  S
C2279      C2280   1.406       .  A
C2280      H2284   1.084       .  S
C2281      H2291   1.111       .  S
C2281      H2292   1.109       .  S
C2281      H2293   1.110   1_554  S
C2283      H2294   1.111       .  S
C2283      H2295   1.110       .  S
C2283      H2296   1.110       .  S
C2297      C2298   1.400       .  A
C2297      C2302   1.407   1_556  A
C2297      H2307   1.084   1_556  S
C2298      C2303   1.483       .  S
C2298      C2299   1.411       .  A
C2299      C2304   1.507       .  S
C2299      C2300   1.403       .  A
C2300      C2301   1.405       .  A
C2300      H2305   1.084       .  S
C2301      C2302   1.420   1_556  A
C2302      C2306   1.507       .  S
C2303      C2308   1.407       .  A
C2303      C2312   1.397       .  A
C2304      H2320   1.110       .  S
C2304      H2321   1.110       .  S
C2304      H2322   1.111       .  S
C2306      H2317   1.111       .  S
C2306      H2318   1.109       .  S
C2306      H2319   1.110       .  S
C2308      C2313   1.505       .  S
C2308      C2309   1.407       .  A
C2309      C2310   1.411       .  A
C2309      H2314   1.084       .  S
C2310      C2311   1.423       .  A
C2311      C2315   1.502       .  S
C2311      C2312   1.403       .  A
C2312      H2316   1.085       .  S
C2313      H2323   1.111       .  S
C2313      H2324   1.110       .  S
C2313      H2325   1.110       .  S
C2315      H2326   1.110   1_556  S
C2315      H2327   1.091       .  S
C2315      H2328   1.110       .  S
C2329      C2330   1.398   1_554  A
C2329      C2334   1.403       .  A
C2329      H2339   1.084       .  S
C2330      C2335   1.483       .  S
C2330      C2331   1.410       .  A
C2331      C2336   1.505       .  S
C2331      C2332   1.408       .  A
C2332      C2333   1.407   1_556  A
C2332      H2337   1.083       .  S
C2333      C2334   1.423       .  A
C2334      C2338   1.509       .  S
C2335      C2340   1.408       .  A
C2335      C2344   1.401   1_556  A
C2336      H2352   1.110       .  S
C2336      H2353   1.110       .  S
C2336      H2354   1.111       .  S
C2338      H2349   1.111       .  S
C2338      H2350   1.111       .  S
C2338      H2351   1.110       .  S
C2340      C2345   1.507       .  S
C2340      C2341   1.403       .  A
C2341      C2342   1.410       .  A
C2341      H2346   1.083       .  S
C2342      C2343   1.420   1_556  A
C2343      C2347   1.506       .  S
C2343      C2344   1.409       .  A
C2344      H2348   1.084       .  S
C2345      H2355   1.111       .  S
C2345      H2356   1.110       .  S
C2345      H2357   1.110       .  S
C2347      H2358   1.110       .  S
C2347      H2359   1.110       .  S
C2347      H2360   1.111       .  S
C2361      C2362   1.401       .  A
C2361      C2366   1.403       .  A
C2361      H2371   1.085       .  S
C2362      C2367   1.487   1_655  S
C2362      C2363   1.413   1_556  A
C2363      C2368   1.506       .  S
C2363      C2364   1.406       .  A
C2364      C2365   1.403   1_554  A
C2364      H2369   1.084       .  S
C2365      C2366   1.418       .  A
C2366      C2370   1.510       .  S
C2367      C2372   1.411   1_556  A
C2367      C2376   1.399       .  A
C2368      H2384   1.109   1_655  S
C2368      H2385   1.110   1_655  S
C2368      H2386   1.111       .  S
C2370      H2381   1.110       .  S
C2370      H2382   1.111       .  S
C2370      H2383   1.105       .  S
C2372      C2377   1.506       .  S
C2372      C2373   1.408   1_554  A
C2373      C2374   1.407       .  A
C2373      H2378   1.084   1_556  S
C2374      C2375   1.423       .  A
C2375      C2379   1.509       .  S
C2375      C2376   1.404       .  A
C2376      H2380   1.085       .  S
C2377      H2387   1.111       .  S
C2377      H2388   1.109   1_554  S
C2377      H2389   1.110       .  S
C2379      H2390   1.111       .  S
C2379      H2391   1.110       .  S
C2379      H2392   1.110       .  S
C2393      C2394   1.400       .  A
C2393      C2398   1.405       .  A
C2393      H2403   1.084       .  S
C2394      C2399   1.487       .  S
C2394      C2395   1.410   1_554  A
C2395      C2400   1.505       .  S
C2395      C2396   1.409   1_556  A
C2396      C2397   1.407       .  A
C2396      H2401   1.084   1_554  S
C2397      C2398   1.421       .  A
C2398      C2402   1.509       .  S
C2399      C2404   1.410       .  A
C2399      C2408   1.401       .  A
C2400      H2416   1.110       .  S
C2400      H2417   1.110       .  S
C2400      H2418   1.111       .  S
C2402      H2413   1.110       .  S
C2402      H2414   1.111       .  S
C2402      H2415   1.111       .  S
C2404      C2409   1.506   1_554  S
C2404      C2405   1.406   1_565  A
C2405      C2406   1.408       .  A
C2405      H2410   1.084   1_554  S
C2406      C2407   1.420       .  A
C2407      C2411   1.507       .  S
C2407      C2408   1.408   1_545  A
C2408      H2412   1.084       .  S
C2409      H2419   1.111       .  S
C2409      H2420   1.110   1_556  S
C2409      H2421   1.110       .  S
C2411      H2422   1.110       .  S
C2411      H2423   1.110       .  S
C2411      H2424   1.111       .  S
C2425      C2426   1.399       .  A
C2425      C2430   1.403       .  A
C2425      H2435   1.084       .  S
C2426      C2431   1.483   1_554  S
C2426      C2427   1.410       .  A
C2427      C2432   1.505   1_554  S
C2427      C2428   1.408       .  A
C2428      C2429   1.407       .  A
C2428      H2433   1.083       .  S
C2429      C2430   1.420       .  A
C2430      C2434   1.509       .  S
C2431      C2436   1.408       .  A
C2431      C2440   1.401   1_556  A
C2432      H2448   1.110   1_556  S
C2432      H2449   1.110       .  S
C2432      H2450   1.111       .  S
C2434      H2445   1.111       .  S
C2434      H2446   1.111       .  S
C2434      H2447   1.109       .  S
C2436      C2441   1.507       .  S
C2436      C2437   1.402       .  A
C2437      C2438   1.408       .  A
C2437      H2442   1.084       .  S
C2438      C2439   1.420   1_556  A
C2439      C2443   1.507       .  S
C2439      C2440   1.408       .  A
C2440      H2444   1.084       .  S
C2441      H2451   1.111       .  S
C2441      H2452   1.110       .  S
C2441      H2453   1.110       .  S
C2443      H2454   1.110       .  S
C2443      H2455   1.110       .  S
C2443      H2456   1.111       .  S
C2457      C2458   1.402       .  A
C2457      C2462   1.409       .  A
C2457      H2467   1.084       .  S
C2458      C2463   1.501   1_554  S
C2458      C2459   1.414       .  A
C2459      C2464   1.507       .  S
C2459      C2460   1.409       .  A
C2460      C2461   1.413       .  A
C2460      H2465   1.083       .  S
C2461      C2462   1.428       .  A
C2462      C2466   1.507       .  S
C2463      C2468   1.411   1_556  A
C2463      C2472   1.400       .  A
C2464      H2480   1.108   1_554  S
C2464      H2481   1.111       .  S
C2464      H2482   1.111       .  S
C2466      H2477   1.111       .  S
C2466      H2478   1.110       .  S
C2466      H2479   1.107       .  S
C2468      C2473   1.509       .  S
C2468      C2469   1.410   1_554  A
C2469      C2470   1.417       .  A
C2469      H2474   1.075   1_556  S
C2470      C2471   1.433       .  A
C2471      C2475   1.513       .  S
C2471      C2472   1.411       .  A
C2472      H2476   1.084       .  S
C2473      H2483   1.111       .  S
C2473      H2484   1.108       .  S
C2473      H2485   1.111       .  S
C2475      H2486   1.104       .  S
C2475      H2487   1.107       .  S
C2475      H2488   1.111       .  S
C2489      C2490   1.400       .  A
C2489      C2494   1.406       .  A
C2489      H2499   1.084       .  S
C2490      C2495   1.482       .  S
C2490      C2491   1.409       .  A
C2491      C2496   1.507       .  S
C2491      C2492   1.402       .  A
C2492      C2493   1.406       .  A
C2492      H2497   1.082       .  S
C2493      C2494   1.420       .  A
C2494      C2498   1.508       .  S
C2495      C2500   1.409   1_554  A
C2495      C2504   1.401       .  A
C2496      H2512   1.110       .  S
C2496      H2513   1.110   1_554  S
C2496      H2514   1.111       .  S
C2498      H2509   1.106       .  S
C2498      H2510   1.111       .  S
C2498      H2511   1.109       .  S
C2500      C2505   1.507       .  S
C2500      C2501   1.402       .  A
C2501      C2502   1.406   1_556  A
C2501      H2506   1.084       .  S
C2502      C2503   1.417       .  A
C2503      C2507   1.507       .  S
C2503      C2504   1.406       .  A
C2504      H2508   1.084       .  S
C2505      H2515   1.111       .  S
C2505      H2516   1.110       .  S
C2505      H2517   1.110       .  S
C2507      H2518   1.111       .  S
C2507      H2519   1.110       .  S
C2507      H2520   1.111       .  S
C2521      C2522   1.399       .  A
C2521      C2526   1.401       .  A
C2521      H2531   1.084       .  S
C2522      C2527   1.493       .  S
C2522      C2523   1.414   1_556  A
C2523      C2528   1.509       .  S
C2523      C2524   1.408       .  A
C2524      C2525   1.414       .  A
C2524      H2529   1.081       .  S
C2525      C2526   1.423   1_554  A
C2526      C2530   1.501       .  S
C2527      C2532   1.415       .  A
C2527      C2536   1.400   1_556  A
C2528      H2544   1.107       .  S
C2528      H2545   1.110       .  S
C2528      H2546   1.111       .  S
C2530      H2541   1.111       .  S
C2530      H2542   1.109       .  S
C2530      H2543   1.101       .  S
C2532      C2537   1.509       .  S
C2532      C2533   1.407       .  A
C2533      C2534   1.411       .  A
C2533      H2538   1.080       .  S
C2534      C2535   1.426       .  A
C2535      C2539   1.510   1_556  S
C2535      C2536   1.402   1_556  A
C2536      H2540   1.083       .  S
C2537      H2547   1.111       .  S
C2537      H2548   1.107       .  S
C2537      H2549   1.110       .  S
C2539      H2550   1.110       .  S
C2539      H2551   1.105       .  S
C2539      H2552   1.111       .  S
C2553      C2554   1.400       .  A
C2553      C2558   1.401       .  A
C2553      H2563   1.085   1_556  S
C2554      C2559   1.480       .  S
C2554      C2555   1.410       .  A
C2555      C2560   1.506       .  S
C2555      C2556   1.405       .  A
C2556      C2557   1.405       .  A
C2556      H2561   1.083       .  S
C2557      C2558   1.416       .  A
C2558      C2562   1.509       .  S
C2559      C2564   1.409       .  A
C2559      C2568   1.401       .  A
C2560      H2576   1.110       .  S
C2560      H2577   1.109       .  S
C2560      H2578   1.111       .  S
C2562      H2573   1.111   1_556  S
C2562      H2574   1.110   1_556  S
C2562      H2575   1.107       .  S
C2564      C2569   1.507       .  S
C2564      C2565   1.403       .  A
C2565      C2566   1.406   1_556  A
C2565      H2570   1.084       .  S
C2566      C2567   1.418       .  A
C2567      C2571   1.507       .  S
C2567      C2568   1.404   1_554  A
C2568      H2572   1.085   1_556  S
C2569      H2579   1.111       .  S
C2569      H2580   1.110       .  S
C2569      H2581   1.110       .  S
C2571      H2582   1.110       .  S
C2571      H2583   1.106       .  S
C2571      H2584   1.111       .  S
C2585      C2586   1.398       .  A
C2585      C2590   1.402       .  A
C2585      H2595   1.085       .  S
C2586      C2591   1.485       .  S
C2586      C2587   1.414   1_556  A
C2587      C2592   1.507       .  S
C2587      C2588   1.408       .  A
C2588      C2589   1.402       .  A
C2588      H2593   1.084       .  S
C2589      C2590   1.420   1_554  A
C2590      C2594   1.508       .  S
C2591      C2596   1.407       .  A
C2591      C2600   1.401       .  A
C2592      H2608   1.110       .  S
C2592      H2609   1.109       .  S
C2592      H2610   1.111       .  S
C2594      H2605   1.110       .  S
C2594      H2606   1.111       .  S
C2594      H2607   1.104       .  S
C2596      C2601   1.508       .  S
C2596      C2597   1.400       .  A
C2597      C2598   1.411       .  A
C2597      H2602   1.083       .  S
C2598      C2599   1.425       .  A
C2599      C2603   1.504       .  S
C2599      C2600   1.412       .  A
C2600      H2604   1.084       .  S
C2601      H2611   1.111       .  S
C2601      H2612   1.110       .  S
C2601      H2613   1.109       .  S
C2603      H2614   1.110       .  S
C2603      H2615   1.099       .  S
C2603      H2616   1.111       .  S
C2617      C2618   1.400       .  A
C2617      C2622   1.402       .  A
C2617      H2627   1.084       .  S
C2618      C2623   1.485       .  S
C2618      C2619   1.412       .  A
C2619      C2624   1.507       .  S
C2619      C2620   1.408       .  A
C2620      C2621   1.403       .  A
C2620      H2625   1.079       .  S
C2621      C2622   1.418       .  A
C2622      C2626   1.508       .  S
C2623      C2628   1.411       .  A
C2623      C2632   1.400       .  A
C2624      H2640   1.110       .  S
C2624      H2641   1.107       .  S
C2624      H2642   1.111       .  S
C2626      H2637   1.110       .  S
C2626      H2638   1.111       .  S
C2626      H2639   1.106       .  S
C2628      C2633   1.508       .  S
C2628      C2629   1.405       .  A
C2629      C2630   1.408       .  A
C2629      H2634   1.083       .  S
C2630      C2631   1.418       .  A
C2631      C2635   1.499       .  S
C2631      C2632   1.407       .  A
C2632      H2636   1.084       .  S
C2633      H2643   1.111       .  S
C2633      H2644   1.110       .  S
C2633      H2645   1.107       .  S
C2635      H2646   1.111       .  S
C2635      H2647   1.109       .  S
C2635      H2648   1.106       .  S
C2649      C2650   1.404       .  A
C2649      C2654   1.411       .  A
C2649      H2659   1.084       .  S
C2650      C2655   1.490   1_655  S
C2650      C2651   1.412       .  A
C2651      C2656   1.508       .  S
C2651      C2652   1.402       .  A
C2652      C2653   1.405       .  A
C2652      H2657   1.084       .  S
C2653      C2654   1.419       .  A
C2654      C2658   1.506       .  S
C2655      C2660   1.411       .  A
C2655      C2664   1.402       .  A
C2656      H2672   1.109   1_655  S
C2656      H2673   1.110   1_655  S
C2656      H2674   1.111       .  S
C2658      H2669   1.110       .  S
C2658      H2670   1.111       .  S
C2658      H2671   1.110       .  S
C2660      C2665   1.507       .  S
C2660      C2661   1.407       .  A
C2661      C2662   1.407       .  A
C2661      H2666   1.084       .  S
C2662      C2663   1.419       .  A
C2663      C2667   1.507       .  S
C2663      C2664   1.407       .  A
C2664      H2668   1.084       .  S
C2665      H2675   1.111       .  S
C2665      H2676   1.110       .  S
C2665      H2677   1.110       .  S
C2667      H2678   1.111       .  S
C2667      H2679   1.110       .  S
C2667      H2680   1.109       .  S
C2681      C2682   1.401       .  A
C2681      C2686   1.405       .  A
C2681      H2691   1.084       .  S
C2682      C2687   1.480       .  S
C2682      C2683   1.409       .  A
C2683      C2688   1.506       .  S
C2683      C2684   1.403       .  A
C2684      C2685   1.406       .  A
C2684      H2689   1.084       .  S
C2685      C2686   1.417       .  A
C2686      C2690   1.507       .  S
C2687      C2692   1.409       .  A
C2687      C2696   1.400       .  A
C2688      H2704   1.110       .  S
C2688      H2705   1.110       .  S
C2688      H2706   1.111       .  S
C2690      H2701   1.111       .  S
C2690      H2702   1.109       .  S
C2690      H2703   1.111       .  S
C2692      C2697   1.506       .  S
C2692      C2693   1.403       .  A
C2693      C2694   1.407       .  A
C2693      H2698   1.084       .  S
C2694      C2695   1.419       .  A
C2695      C2699   1.508       .  S
C2695      C2696   1.404       .  A
C2696      H2700   1.084       .  S
C2697      H2707   1.111       .  S
C2697      H2708   1.110       .  S
C2697      H2709   1.110       .  S
C2699      H2710   1.110       .  S
C2699      H2711   1.111       .  S
C2699      H2712   1.111       .  S
C2713      C2714   1.403       .  A
C2713      C2718   1.405       .  A
C2713      H2723   1.084       .  S
C2714      C2719   1.486       .  S
C2714      C2715   1.412       .  A
C2715      C2720   1.507       .  S
C2715      C2716   1.404       .  A
C2716      C2717   1.402       .  A
C2716      H2721   1.084       .  S
C2717      C2718   1.418       .  A
C2718      C2722   1.509       .  S
C2719      C2724   1.412       .  A
C2719      C2728   1.402       .  A
C2720      H2736   1.109       .  S
C2720      H2737   1.110       .  S
C2720      H2738   1.111       .  S
C2722      H2733   1.110       .  S
C2722      H2734   1.110       .  S
C2722      H2735   1.106       .  S
C2724      C2729   1.506       .  S
C2724      C2725   1.406       .  A
C2725      C2726   1.405       .  A
C2725      H2730   1.084       .  S
C2726      C2727   1.416       .  A
C2727      C2731   1.509       .  S
C2727      C2728   1.402       .  A
C2728      H2732   1.085       .  S
C2729      H2739   1.111       .  S
C2729      H2740   1.109       .  S
C2729      H2741   1.110       .  S
C2731      H2742   1.110       .  S
C2731      H2743   1.106       .  S
C2731      H2744   1.111       .  S
C2745      C2746   1.403       .  A
C2745      C2750   1.406       .  A
C2745      H2755   1.084       .  S
C2746      C2751   1.488       .  S
C2746      C2747   1.412       .  A
C2747      C2752   1.507       .  S
C2747      C2748   1.405       .  A
C2748      C2749   1.406       .  A
C2748      H2753   1.084       .  S
C2749      C2750   1.416       .  A
C2750      C2754   1.506       .  S
C2751      C2756   1.410       .  A
C2751      C2760   1.404       .  A
C2752      H2768   1.110       .  S
C2752      H2769   1.110       .  S
C2752      H2770   1.111       .  S
C2754      H2765   1.110       .  S
C2754      H2766   1.111       .  S
C2754      H2767   1.107       .  S
C2756      C2761   1.508       .  S
C2756      C2757   1.401       .  A
C2757      C2758   1.407       .  A
C2757      H2762   1.084       .  S
C2758      C2759   1.420       .  A
C2759      C2763   1.506       .  S
C2759      C2760   1.411       .  A
C2760      H2764   1.084       .  S
C2761      H2771   1.111       .  S
C2761      H2772   1.109       .  S
C2761      H2773   1.110       .  S
C2763      H2774   1.111       .  S
C2763      H2775   1.110       .  S
C2763      H2776   1.110       .  S
C2777      C2778   1.400       .  A
C2777      C2782   1.403       .  A
C2777      H2787   1.084       .  S
C2778      C2783   1.478       .  S
C2778      C2779   1.408       .  A
C2779      C2784   1.506       .  S
C2779      C2780   1.402       .  A
C2780      C2781   1.406       .  A
C2780      H2785   1.084       .  S
C2781      C2782   1.418       .  A
C2782      C2786   1.508       .  S
C2783      C2788   1.407       .  A
C2783      C2792   1.401       .  A
C2784      H2800   1.110       .  S
C2784      H2801   1.110       .  S
C2784      H2802   1.111       .  S
C2786      H2797   1.111       .  S
C2786      H2798   1.111       .  S
C2786      H2799   1.109       .  S
C2788      C2793   1.506       .  S
C2788      C2789   1.402       .  A
C2789      C2790   1.407       .  A
C2789      H2794   1.084       .  S
C2790      C2791   1.417       .  A
C2791      C2795   1.507       .  S
C2791      C2792   1.403       .  A
C2792      H2796   1.084       .  S
C2793      H2803   1.111       .  S
C2793      H2804   1.110       .  S
C2793      H2805   1.111       .  S
C2795      H2806   1.111       .  S
C2795      H2807   1.110       .  S
C2795      H2808   1.110       .  S
C2809      C2810   1.400       .  A
C2809      C2814   1.404       .  A
C2809      H2819   1.084       .  S
C2810      C2815   1.483       .  S
C2810      C2811   1.411       .  A
C2811      C2816   1.506       .  S
C2811      C2812   1.405       .  A
C2812      C2813   1.404       .  A
C2812      H2817   1.084       .  S
C2813      C2814   1.418       .  A
C2814      C2818   1.509       .  S
C2815      C2820   1.411       .  A
C2815      C2824   1.399       .  A
C2816      H2832   1.110       .  S
C2816      H2833   1.110       .  S
C2816      H2834   1.111       .  S
C2818      H2829   1.111       .  S
C2818      H2830   1.109       .  S
C2818      H2831   1.111       .  S
C2820      C2825   1.505       .  S
C2820      C2821   1.408       .  A
C2821      C2822   1.405       .  A
C2821      H2826   1.084       .  S
C2822      C2823   1.418       .  A
C2823      C2827   1.508       .  S
C2823      C2824   1.402       .  A
C2824      H2828   1.084       .  S
C2825      H2835   1.111       .  S
C2825      H2836   1.110       .  S
C2825      H2837   1.110       .  S
C2827      H2838   1.111       .  S
C2827      H2839   1.109       .  S
C2827      H2840   1.111       .  S
C2841      C2842   1.396       .  A
C2841      C2846   1.403       .  A
C2841      H2851   1.085       .  S
C2842      C2847   1.480       .  S
C2842      C2843   1.405       .  A
C2843      C2848   1.508       .  S
C2843      C2844   1.403       .  A
C2844      C2845   1.415       .  A
C2844      H2849   1.078       .  S
C2845      C2846   1.429       .  A
C2846      C2850   1.510       .  S
C2847      C2852   1.404       .  A
C2847      C2856   1.395       .  A
C2848      H2864   1.110       .  S
C2848      H2865   1.110       .  S
C2848      H2866   1.111       .  S
C2850      H2861   1.111       .  S
C2850      H2862   1.110       .  S
C2850      H2863   1.101       .  S
C2852      C2857   1.508       .  S
C2852      C2853   1.403       .  A
C2853      C2854   1.416       .  A
C2853      H2858   1.073       .  S
C2854      C2855   1.432       .  A
C2855      C2859   1.512       .  S
C2855      C2856   1.404       .  A
C2856      H2860   1.085       .  S
C2857      H2867   1.111       .  S
C2857      H2868   1.110       .  S
C2857      H2869   1.110       .  S
C2859      H2870   1.111       .  S
C2859      H2871   1.101       .  S
C2859      H2872   1.111       .  S
C2873      C2874   1.399       .  A
C2873      C2878   1.406       .  A
C2873      H2883   1.085       .  S
C2874      C2879   1.479       .  S
C2874      C2875   1.407       .  A
C2875      C2880   1.508       .  S
C2875      C2876   1.399       .  A
C2876      C2877   1.409       .  A
C2876      H2881   1.082       .  S
C2877      C2878   1.422       .  A
C2878      C2882   1.503       .  S
C2879      C2884   1.410       .  A
C2879      C2888   1.398       .  A
C2880      H2896   1.110       .  S
C2880      H2897   1.109       .  S
C2880      H2898   1.111       .  S
C2882      H2893   1.111       .  S
C2882      H2894   1.110       .  S
C2882      H2895   1.097       .  S
C2884      C2889   1.507       .  S
C2884      C2885   1.404       .  A
C2885      C2886   1.404       .  A
C2885      H2890   1.084       .  S
C2886      C2887   1.422       .  A
C2887      C2891   1.509       .  S
C2887      C2888   1.402       .  A
C2888      H2892   1.085       .  S
C2889      H2899   1.111       .  S
C2889      H2900   1.110       .  S
C2889      H2901   1.109       .  S
C2891      H2902   1.110       .  S
C2891      H2903   1.103       .  S
C2891      H2904   1.111       .  S
C2905      C2906   1.401       .  A
C2905      C2910   1.402       .  A
C2905      H2915   1.085       .  S
C2906      C2911   1.487       .  S
C2906      C2907   1.413       .  A
C2907      C2912   1.506       .  S
C2907      C2908   1.408       .  A
C2908      C2909   1.403       .  A
C2908      H2913   1.084       .  S
C2909      C2910   1.416       .  A
C2910      C2914   1.506       .  S
C2911      C2916   1.411       .  A
C2911      C2920   1.403       .  A
C2912      H2928   1.110       .  S
C2912      H2929   1.111       .  S
C2912      H2930   1.111       .  S
C2914      H2925   1.110       .  S
C2914      H2926   1.110       .  S
C2914      H2927   1.103       .  S
C2916      C2921   1.508       .  S
C2916      C2917   1.401       .  A
C2917      C2918   1.408       .  A
C2917      H2922   1.084       .  S
C2918      C2919   1.415       .  A
C2919      C2923   1.502       .  S
C2919      C2920   1.409       .  A
C2920      H2924   1.084       .  S
C2921      H2931   1.111       .  S
C2921      H2932   1.109       .  S
C2921      H2933   1.111       .  S
C2923      H2934   1.107       .  S
C2923      H2935   1.110       .  S
C2923      H2936   1.111       .  S
C2937      C2938   1.396       .  A
C2937      C2942   1.405       .  A
C2937      H2947   1.085       .  S
C2938      C2943   1.477       .  S
C2938      C2939   1.403       .  A
C2939      C2944   1.509       .  S
C2939      C2940   1.399       .  A
C2940      C2941   1.415       .  A
C2940      H2945   1.072       .  S
C2941      C2942   1.432       .  A
C2942      C2946   1.512       .  S
C2943      C2948   1.403       .  A
C2943      C2952   1.395       .  A
C2944      H2960   1.110       .  S
C2944      H2961   1.110       .  S
C2944      H2962   1.110       .  S
C2946      H2957   1.111       .  S
C2946      H2958   1.110       .  S
C2946      H2959   1.102       .  S
C2948      C2953   1.508       .  S
C2948      C2949   1.401       .  A
C2949      C2950   1.415       .  A
C2949      H2954   1.074       .  S
C2950      C2951   1.432       .  A
C2951      C2955   1.513       .  S
C2951      C2952   1.402       .  A
C2952      H2956   1.085       .  S
C2953      H2963   1.111       .  S
C2953      H2964   1.110       .  S
C2953      H2965   1.110       .  S
C2955      H2966   1.111       .  S
C2955      H2967   1.102       .  S
C2955      H2968   1.111       .  S
C2969      C2970   1.402       .  A
C2969      C2974   1.407       .  A
C2969      H2979   1.084       .  S
C2970      C2975   1.485       .  S
C2970      C2971   1.407       .  A
C2971      C2976   1.511       .  S
C2971      C2972   1.400       .  A
C2972      C2973   1.415       .  A
C2972      H2977   1.081       .  S
C2973      C2974   1.422       .  A
C2974      C2978   1.504       .  S
C2975      C2980   1.414       .  A
C2975      C2984   1.402       .  A
C2976      H2992   1.110       .  S
C2976      H2993   1.105       .  S
C2976      H2994   1.111       .  S
C2978      H2989   1.110       .  S
C2978      H2990   1.111       .  S
C2978      H2991   1.103       .  S
C2980      C2985   1.510       .  S
C2980      C2981   1.404       .  A
C2981      C2982   1.401       .  A
C2981      H2986   1.084       .  S
C2982      C2983   1.416       .  A
C2983      C2987   1.507       .  S
C2983      C2984   1.404       .  A
C2984      H2988   1.084       .  S
C2985      H2995   1.111       .  S
C2985      H2996   1.110       .  S
C2985      H2997   1.106       .  S
C2987      H2998   1.110       .  S
C2987      H2999   1.108       .  S
C2987      H3000   1.110       .  S
C3001      C3002   1.405       .  A
C3001      C3006   1.402       .  A
C3001      H3011   1.083       .  S
C3002      C3007   1.496       .  S
C3002      C3003   1.418       .  A
C3003      C3008   1.508       .  S
C3003      C3004   1.407       .  A
C3004      C3005   1.401       .  A
C3004      H3009   1.084       .  S
C3005      C3006   1.413       .  A
C3006      C3010   1.507       .  S
C3007      C3012   1.414       .  A
C3007      C3016   1.404       .  A
C3008      H3024   1.107       .  S
C3008      H3025   1.110       .  S
C3008      H3026   1.111       .  S
C3010      H3021   1.110       .  S
C3010      H3022   1.110       .  S
C3010      H3023   1.108       .  S
C3012      C3017   1.510       .  S
C3012      C3013   1.403       .  A
C3013      C3014   1.412       .  A
C3013      H3018   1.083       .  S
C3014      C3015   1.419       .  A
C3015      C3019   1.498       .  S
C3015      C3016   1.409       .  A
C3016      H3020   1.083       .  S
C3017      H3027   1.111       .  S
C3017      H3028   1.107       .  S
C3017      H3029   1.110       .  S
C3019      H3030   1.106       .  S
C3019      H3031   1.110       .  S
C3019      H3032   1.111       .  S
C3033      C3034   1.394       .  A
C3033      C3038   1.405       .  A
C3033      H3043   1.085       .  S
C3034      C3039   1.483       .  S
C3034      C3035   1.407       .  A
C3035      C3040   1.507       .  S
C3035      C3036   1.406       .  A
C3036      C3037   1.413       .  A
C3036      H3041   1.083       .  S
C3037      C3038   1.430       .  A
C3038      C3042   1.505       .  S
C3039      C3044   1.413       .  A
C3039      C3048   1.402       .  A
C3040      H3056   1.110       .  S
C3040      H3057   1.110       .  S
C3040      H3058   1.111       .  S
C3042      H3053   1.111       .  S
C3042      H3054   1.108       .  S
C3042      H3055   1.101       .  S
C3044      C3049   1.507       .  S
C3044      C3045   1.403       .  A
C3045      C3046   1.402       .  A
C3045      H3050   1.082       .  S
C3046      C3047   1.414       .  A
C3047      C3051   1.507       .  S
C3047      C3048   1.404       .  A
C3048      H3052   1.084       .  S
C3049      H3059   1.111       .  S
C3049      H3060   1.109       .  S
C3049      H3061   1.111       .  S
C3051      H3062   1.110       .  S
C3051      H3063   1.108       .  S
C3051      H3064   1.110       .  S
C3065      C3066   1.400       .  A
C3065      C3070   1.402       .  A
C3065      H3075   1.084       .  S
C3066      C3071   1.487       .  S
C3066      C3067   1.412       .  A
C3067      C3072   1.505       .  S
C3067      C3068   1.410       .  A
C3068      C3069   1.407       .  A
C3068      H3073   1.083       .  S
C3069      C3070   1.419       .  A
C3070      C3074   1.509       .  S
C3071      C3076   1.412       .  A
C3071      C3080   1.400       .  A
C3072      H3088   1.110       .  S
C3072      H3089   1.110       .  S
C3072      H3090   1.111       .  S
C3074      H3085   1.109       .  S
C3074      H3086   1.111       .  S
C3074      H3087   1.111       .  S
C3076      C3081   1.506       .  S
C3076      C3077   1.407       .  A
C3077      C3078   1.406       .  A
C3077      H3082   1.084       .  S
C3078      C3079   1.420       .  A
C3079      C3083   1.508       .  S
C3079      C3080   1.406       .  A
C3080      H3084   1.084       .  S
C3081      H3091   1.111       .  S
C3081      H3092   1.109       .  S
C3081      H3093   1.111       .  S
C3083      H3094   1.110       .  S
C3083      H3095   1.110       .  S
C3083      H3096   1.111       .  S
C3097      C3098   1.401       .  A
C3097      C3102   1.402       .  A
C3097      H3107   1.085       .  S
C3098      C3103   1.479       .  S
C3098      C3099   1.410       .  A
C3099      C3104   1.506       .  S
C3099      C3100   1.401       .  A
C3100      C3101   1.403       .  A
C3100      H3105   1.084       .  S
C3101      C3102   1.417       .  A
C3102      C3106   1.509       .  S
C3103      C3108   1.409       .  A
C3103      C3112   1.398       .  A
C3104      H3120   1.110       .  S
C3104      H3121   1.110       .  S
C3104      H3122   1.111       .  S
C3106      H3117   1.110       .  S
C3106      H3118   1.111       .  S
C3106      H3119   1.105       .  S
C3108      C3113   1.506       .  S
C3108      C3109   1.405       .  A
C3109      C3110   1.407       .  A
C3109      H3114   1.083       .  S
C3110      C3111   1.421       .  A
C3111      C3115   1.509       .  S
C3111      C3112   1.401       .  A
C3112      H3116   1.085       .  S
C3113      H3123   1.110       .  S
C3113      H3124   1.110       .  S
C3113      H3125   1.110       .  S
C3115      H3126   1.111       .  S
C3115      H3127   1.111       .  S
C3115      H3128   1.110       .  S
C3129      C3130   1.402       .  A
C3129      C3134   1.408       .  A
C3129      H3139   1.084       .  S
C3130      C3135   1.483       .  S
C3130      C3131   1.407       .  A
C3131      C3136   1.507       .  S
C3131      C3132   1.401       .  A
C3132      C3133   1.409       .  A
C3132      H3137   1.084       .  S
C3133      C3134   1.420       .  A
C3134      C3138   1.507       .  S
C3135      C3140   1.411       .  A
C3135      C3144   1.398       .  A
C3136      H3152   1.110       .  S
C3136      H3153   1.110       .  S
C3136      H3154   1.111       .  S
C3138      H3149   1.111       .  S
C3138      H3150   1.110       .  S
C3138      H3151   1.110       .  S
C3140      C3145   1.505       .  S
C3140      C3141   1.408       .  A
C3141      C3142   1.404       .  A
C3141      H3146   1.082       .  S
C3142      C3143   1.420       .  A
C3143      C3147   1.509       .  S
C3143      C3144   1.399       .  A
C3144      H3148   1.085       .  S
C3145      H3155   1.111       .  S
C3145      H3156   1.110       .  S
C3145      H3157   1.110       .  S
C3147      H3158   1.110       .  S
C3147      H3159   1.105       .  S
C3147      H3160   1.111       .  S
C3161      C3162   1.401       .  A
C3161      C3166   1.406       .  A
C3161      H3171   1.084       .  S
C3162      C3167   1.492   1_545  S
C3162      C3163   1.413       .  A
C3163      C3168   1.507       .  S
C3163      C3164   1.408       .  A
C3164      C3165   1.408       .  A
C3164      H3169   1.084       .  S
C3165      C3166   1.421       .  A
C3166      C3170   1.508       .  S
C3167      C3172   1.415       .  A
C3167      C3176   1.402       .  A
C3168      H3184   1.109   1_545  S
C3168      H3185   1.110   1_545  S
C3168      H3186   1.111       .  S
C3170      H3181   1.110       .  S
C3170      H3182   1.111       .  S
C3170      H3183   1.110       .  S
C3172      C3177   1.507       .  S
C3172      C3173   1.408       .  A
C3173      C3174   1.405       .  A
C3173      H3178   1.084       .  S
C3174      C3175   1.418       .  A
C3175      C3179   1.508       .  S
C3175      C3176   1.404       .  A
C3176      H3180   1.085       .  S
C3177      H3187   1.111       .  S
C3177      H3188   1.109       .  S
C3177      H3189   1.110       .  S
C3179      H3190   1.111       .  S
C3179      H3191   1.104       .  S
C3179      H3192   1.110       .  S
C3193      C3194   1.400       .  A
C3193      C3198   1.403       .  A
C3193      H3203   1.084       .  S
C3194      C3199   1.478       .  S
C3194      C3195   1.409       .  A
C3195      C3200   1.506       .  S
C3195      C3196   1.402       .  A
C3196      C3197   1.404       .  A
C3196      H3201   1.084       .  S
C3197      C3198   1.416       .  A
C3198      C3202   1.508       .  S
C3199      C3204   1.408       .  A
C3199      C3208   1.399       .  A
C3200      H3216   1.110       .  S
C3200      H3217   1.110       .  S
C3200      H3218   1.111       .  S
C3202      H3213   1.109       .  S
C3202      H3214   1.111       .  S
C3202      H3215   1.111       .  S
C3204      C3209   1.507       .  S
C3204      C3205   1.402       .  A
C3205      C3206   1.407       .  A
C3205      H3210   1.083       .  S
C3206      C3207   1.421       .  A
C3207      C3211   1.508       .  S
C3207      C3208   1.403       .  A
C3208      H3212   1.084       .  S
C3209      H3219   1.111       .  S
C3209      H3220   1.110       .  S
C3209      H3221   1.110       .  S
C3211      H3222   1.111       .  S
C3211      H3223   1.110       .  S
C3211      H3224   1.111       .  S
C3225      C3226   1.401       .  A
C3225      C3230   1.401       .  A
C3225      H3235   1.085       .  S
C3226      C3231   1.480       .  S
C3226      C3227   1.410       .  A
C3227      C3232   1.506       .  S
C3227      C3228   1.404       .  A
C3228      C3229   1.405       .  A
C3228      H3233   1.084       .  S
C3229      C3230   1.416       .  A
C3230      C3234   1.508       .  S
C3231      C3236   1.409       .  A
C3231      C3240   1.399       .  A
C3232      H3248   1.109       .  S
C3232      H3249   1.110       .  S
C3232      H3250   1.111       .  S
C3234      H3245   1.110       .  S
C3234      H3246   1.111       .  S
C3234      H3247   1.106       .  S
C3236      C3241   1.507       .  S
C3236      C3237   1.401       .  A
C3237      C3238   1.406       .  A
C3237      H3242   1.084       .  S
C3238      C3239   1.418       .  A
C3239      C3243   1.501       .  S
C3239      C3240   1.403       .  A
C3240      H3244   1.085       .  S
C3241      H3251   1.111       .  S
C3241      H3252   1.109       .  S
C3241      H3253   1.111       .  S
C3243      H3254   1.110       .  S
C3243      H3255   1.098       .  S
C3243      H3256   1.110       .  S
C3257      C3258   1.403       .  A
C3257      C3262   1.409       .  A
C3257      H3267   1.084       .  S
C3258      C3263   1.488       .  S
C3258      C3259   1.411       .  A
C3259      C3264   1.508       .  S
C3259      C3260   1.403       .  A
C3260      C3261   1.408       .  A
C3260      H3265   1.084       .  S
C3261      C3262   1.419       .  A
C3262      C3266   1.506       .  S
C3263      C3268   1.411       .  A
C3263      C3272   1.404       .  A
C3264      H3280   1.109       .  S
C3264      H3281   1.110       .  S
C3264      H3282   1.111       .  S
C3266      H3277   1.110       .  S
C3266      H3278   1.111       .  S
C3266      H3279   1.110       .  S
C3268      C3273   1.508       .  S
C3268      C3269   1.402       .  A
C3269      C3270   1.406       .  A
C3269      H3274   1.084       .  S
C3270      C3271   1.418       .  A
C3271      C3275   1.506       .  S
C3271      C3272   1.410       .  A
C3272      H3276   1.084       .  S
C3273      H3283   1.111       .  S
C3273      H3284   1.109       .  S
C3273      H3285   1.110       .  S
C3275      H3286   1.111       .  S
C3275      H3287   1.110       .  S
C3275      H3288   1.109       .  S
C3289      C3290   1.400       .  A
C3289      C3294   1.406       .  A
C3289      H3299   1.085       .  S
C3290      C3295   1.492   1_655  S
C3290      C3291   1.412       .  A
C3291      C3296   1.506       .  S
C3291      C3292   1.411       .  A
C3292      C3293   1.409       .  A
C3292      H3297   1.083       .  S
C3293      C3294   1.422       .  A
C3294      C3298   1.508       .  S
C3295      C3300   1.413       .  A
C3295      C3304   1.401       .  A
C3296      H3312   1.110   1_655  S
C3296      H3313   1.111   1_655  S
C3296      H3314   1.111       .  S
C3298      H3309   1.110       .  S
C3298      H3310   1.111       .  S
C3298      H3311   1.111       .  S
C3300      C3305   1.506       .  S
C3300      C3301   1.410       .  A
C3301      C3302   1.407       .  A
C3301      H3306   1.084       .  S
C3302      C3303   1.420       .  A
C3303      C3307   1.509       .  S
C3303      C3304   1.406       .  A
C3304      H3308   1.085       .  S
C3305      H3315   1.111       .  S
C3305      H3316   1.109       .  S
C3305      H3317   1.110       .  S
C3307      H3318   1.111       .  S
C3307      H3319   1.104       .  S
C3307      H3320   1.110       .  S
C3321      C3322   1.399       .  A
C3321      C3326   1.399       .  A
C3321      H3331   1.085       .  S
C3322      C3327   1.477       .  S
C3322      C3323   1.410       .  A
C3323      C3328   1.506       .  S
C3323      C3324   1.403       .  A
C3324      C3325   1.404       .  A
C3324      H3329   1.084       .  S
C3325      C3326   1.418       .  A
C3326      C3330   1.509       .  S
C3327      C3332   1.409       .  A
C3327      C3336   1.400       .  A
C3328      H3344   1.109       .  S
C3328      H3345   1.110       .  S
C3328      H3346   1.111       .  S
C3330      H3341   1.110       .  S
C3330      H3342   1.111       .  S
C3330      H3343   1.106       .  S
C3332      C3337   1.507       .  S
C3332      C3333   1.400       .  A
C3333      C3334   1.406       .  A
C3333      H3338   1.084       .  S
C3334      C3335   1.418       .  A
C3335      C3339   1.508       .  S
C3335      C3336   1.402       .  A
C3336      H3340   1.084       .  S
C3337      H3347   1.111       .  S
C3337      H3348   1.109       .  S
C3337      H3349   1.110       .  S
C3339      H3350   1.111       .  S
C3339      H3351   1.110       .  S
C3339      H3352   1.111       .  S
C3353      C3354   1.402       .  A
C3353      C3358   1.408       .  A
C3353      H3363   1.085       .  S
C3354      C3359   1.486       .  S
C3354      C3355   1.409       .  A
C3355      C3360   1.506       .  S
C3355      C3356   1.403       .  A
C3356      C3357   1.405       .  A
C3356      H3361   1.084       .  S
C3357      C3358   1.421       .  A
C3358      C3362   1.509       .  S
C3359      C3364   1.410   1_565  A
C3359      C3368   1.400       .  A
C3360      H3376   1.110       .  S
C3360      H3377   1.110       .  S
C3360      H3378   1.111       .  S
C3362      H3373   1.110       .  S
C3362      H3374   1.111       .  S
C3362      H3375   1.103       .  S
C3364      C3369   1.505   1_545  S
C3364      C3365   1.409       .  A
C3365      C3366   1.407       .  A
C3365      H3370   1.084       .  S
C3366      C3367   1.419       .  A
C3367      C3371   1.509       .  S
C3367      C3368   1.403   1_545  A
C3368      H3372   1.084       .  S
C3369      H3379   1.111   1_565  S
C3369      H3380   1.110       .  S
C3369      H3381   1.110       .  S
C3371      H3382   1.111       .  S
C3371      H3383   1.111       .  S
C3371      H3384   1.109       .  S
C3385      C3386   1.399       .  A
C3385      C3390   1.405       .  A
C3385      H3395   1.084       .  S
C3386      C3391   1.479       .  S
C3386      C3387   1.408       .  A
C3387      C3392   1.507       .  S
C3387      C3388   1.402       .  A
C3388      C3389   1.408       .  A
C3388      H3393   1.084       .  S
C3389      C3390   1.421       .  A
C3390      C3394   1.507       .  S
C3391      C3396   1.409       .  A
C3391      C3400   1.401       .  A
C3392      H3408   1.110       .  S
C3392      H3409   1.110       .  S
C3392      H3410   1.111       .  S
C3394      H3405   1.110       .  S
C3394      H3406   1.111       .  S
C3394      H3407   1.110       .  S
C3396      C3401   1.507       .  S
C3396      C3397   1.402       .  A
C3397      C3398   1.405       .  A
C3397      H3402   1.084       .  S
C3398      C3399   1.417       .  A
C3399      C3403   1.508       .  S
C3399      C3400   1.404       .  A
C3400      H3404   1.084       .  S
C3401      H3411   1.111       .  S
C3401      H3412   1.110       .  S
C3401      H3413   1.110       .  S
C3403      H3414   1.111       .  S
C3403      H3415   1.106       .  S
C3403      H3416   1.110       .  S
C3417      C3418   1.401       .  A
C3417      C3422   1.408       .  A
C3417      H3427   1.084       .  S
C3418      C3423   1.485       .  S
C3418      C3419   1.409       .  A
C3419      C3424   1.507       .  S
C3419      C3420   1.404       .  A
C3420      C3421   1.410       .  A
C3420      H3425   1.084       .  S
C3421      C3422   1.420       .  A
C3422      C3426   1.506       .  S
C3423      C3428   1.409       .  A
C3423      C3432   1.402       .  A
C3424      H3440   1.110       .  S
C3424      H3441   1.110       .  S
C3424      H3442   1.111       .  S
C3426      H3437   1.111       .  S
C3426      H3438   1.110       .  S
C3426      H3439   1.110       .  S
C3428      C3433   1.508       .  S
C3428      C3429   1.401       .  A
C3429      C3430   1.407       .  A
C3429      H3434   1.084       .  S
C3430      C3431   1.422       .  A
C3431      C3435   1.507       .  S
C3431      C3432   1.410       .  A
C3432      H3436   1.084       .  S
C3433      H3443   1.111       .  S
C3433      H3444   1.110       .  S
C3433      H3445   1.110       .  S
C3435      H3446   1.111       .  S
C3435      H3447   1.110       .  S
C3435      H3448   1.110       .  S
C3449      C3450   1.403       .  A
C3449      C3454   1.411       .  A
C3449      H3459   1.084       .  S
C3450      C3455   1.496       .  S
C3450      C3451   1.413       .  A
C3451      C3456   1.506       .  S
C3451      C3452   1.410       .  A
C3452      C3453   1.407       .  A
C3452      H3457   1.084       .  S
C3453      C3454   1.420       .  A
C3454      C3458   1.506       .  S
C3455      C3460   1.413       .  A
C3455      C3464   1.400       .  A
C3456      H3472   1.110       .  S
C3456      H3473   1.109       .  S
C3456      H3474   1.111       .  S
C3458      H3469   1.107       .  S
C3458      H3470   1.111       .  S
C3458      H3471   1.108       .  S
C3460      C3465   1.505       .  S
C3460      C3461   1.414       .  A
C3461      C3462   1.408       .  A
C3461      H3466   1.083       .  S
C3462      C3463   1.424       .  A
C3463      C3467   1.509       .  S
C3463      C3464   1.405       .  A
C3464      H3468   1.085       .  S
C3465      H3475   1.111       .  S
C3465      H3476   1.110       .  S
C3465      H3477   1.108       .  S
C3467      H3478   1.111       .  S
C3467      H3479   1.104       .  S
C3467      H3480   1.110       .  S
C3481      C3482   1.396       .  A
C3481      C3486   1.407       .  A
C3481      H3491   1.084       .  S
C3482      C3487   1.482       .  S
C3482      C3483   1.404       .  A
C3483      C3488   1.509       .  S
C3483      C3484   1.403       .  A
C3484      C3485   1.417       .  A
C3484      H3489   1.074       .  S
C3485      C3486   1.432       .  A
C3486      C3490   1.514       .  S
C3487      C3492   1.405       .  A
C3487      C3496   1.396       .  A
C3488      H3504   1.110       .  S
C3488      H3505   1.109       .  S
C3488      H3506   1.111       .  S
C3490      H3501   1.106       .  S
C3490      H3502   1.111       .  S
C3490      H3503   1.107       .  S
C3492      C3497   1.508       .  S
C3492      C3493   1.405       .  A
C3493      C3494   1.417       .  A
C3493      H3498   1.075       .  S
C3494      C3495   1.432       .  A
C3495      C3499   1.512       .  S
C3495      C3496   1.404       .  A
C3496      H3500   1.085       .  S
C3497      H3507   1.110       .  S
C3497      H3508   1.111       .  S
C3497      H3509   1.109       .  S
C3499      H3510   1.111       .  S
C3499      H3511   1.102       .  S
C3499      H3512   1.110       .  S
C3513      C3514   1.401       .  A
C3513      C3518   1.405       .  A
C3513      H3523   1.085       .  S
C3514      C3519   1.483       .  S
C3514      C3515   1.411       .  A
C3515      C3520   1.507       .  S
C3515      C3516   1.403       .  A
C3516      C3517   1.404       .  A
C3516      H3521   1.082       .  S
C3517      C3518   1.418       .  A
C3518      C3522   1.506       .  S
C3519      C3524   1.409       .  A
C3519      C3528   1.398       .  A
C3520      H3536   1.110       .  S
C3520      H3537   1.110       .  S
C3520      H3538   1.111       .  S
C3522      H3533   1.111       .  S
C3522      H3534   1.110       .  S
C3522      H3535   1.105       .  S
C3524      C3529   1.505       .  S
C3524      C3525   1.407       .  A
C3525      C3526   1.408       .  A
C3525      H3530   1.084       .  S
C3526      C3527   1.423       .  A
C3527      C3531   1.509       .  S
C3527      C3528   1.403       .  A
C3528      H3532   1.084       .  S
C3529      H3539   1.111       .  S
C3529      H3540   1.110       .  S
C3529      H3541   1.110       .  S
C3531      H3542   1.110       .  S
C3531      H3543   1.110       .  S
C3531      H3544   1.111       .  S
C3545      C3546   1.399       .  A
C3545      C3550   1.403       .  A
C3545      H3555   1.085       .  S
C3546      C3551   1.487       .  S
C3546      C3547   1.411       .  A
C3547      C3552   1.505       .  S
C3547      C3548   1.409       .  A
C3548      C3549   1.406       .  A
C3548      H3553   1.084       .  S
C3549      C3550   1.422       .  A
C3550      C3554   1.510       .  S
C3551      C3556   1.408       .  A
C3551      C3560   1.400       .  A
C3552      H3568   1.110       .  S
C3552      H3569   1.109       .  S
C3552      H3570   1.111       .  S
C3554      H3565   1.110       .  S
C3554      H3566   1.111       .  S
C3554      H3567   1.106       .  S
C3556      C3561   1.506       .  S
C3556      C3557   1.405       .  A
C3557      C3558   1.410       .  A
C3557      H3562   1.084       .  S
C3558      C3559   1.422       .  A
C3559      C3563   1.503       .  S
C3559      C3560   1.407       .  A
C3560      H3564   1.085       .  S
C3561      H3571   1.111       .  S
C3561      H3572   1.110       .  S
C3561      H3573   1.110       .  S
C3563      H3574   1.110       .  S
C3563      H3575   1.095       .  S
C3563      H3576   1.110       .  S
C3577      C3578   1.399       .  A
C3577      C3582   1.409       .  A
C3577      H3587   1.084       .  S
C3578      C3583   1.482       .  S
C3578      C3579   1.405       .  A
C3579      C3584   1.510       .  S
C3579      C3580   1.399       .  A
C3580      C3581   1.415       .  A
C3580      H3585   1.074       .  S
C3581      C3582   1.430       .  A
C3582      C3586   1.511       .  S
C3583      C3588   1.406       .  A
C3583      C3592   1.395       .  A
C3584      H3600   1.110       .  S
C3584      H3601   1.109       .  S
C3584      H3602   1.111       .  S
C3586      H3597   1.111       .  S
C3586      H3598   1.103       .  S
C3586      H3599   1.110       .  S
C3588      C3593   1.508       .  S
C3588      C3589   1.406       .  A
C3589      C3590   1.415       .  A
C3589      H3594   1.077       .  S
C3590      C3591   1.431       .  A
C3591      C3595   1.512       .  S
C3591      C3592   1.402       .  A
C3592      H3596   1.085       .  S
C3593      H3603   1.111       .  S
C3593      H3604   1.110       .  S
C3593      H3605   1.109       .  S
C3595      H3606   1.111       .  S
C3595      H3607   1.102       .  S
C3595      H3608   1.111       .  S
C3609      C3610   1.402       .  A
C3609      C3614   1.404       .  A
C3609      H3619   1.084       .  S
C3610      C3615   1.487       .  S
C3610      C3611   1.413       .  A
C3611      C3616   1.507       .  S
C3611      C3612   1.403       .  A
C3612      C3613   1.405       .  A
C3612      H3617   1.084       .  S
C3613      C3614   1.416       .  A
C3614      C3618   1.505       .  S
C3615      C3620   1.413       .  A
C3615      C3624   1.402       .  A
C3616      H3632   1.109       .  S
C3616      H3633   1.110       .  S
C3616      H3634   1.111       .  S
C3618      H3629   1.110       .  S
C3618      H3630   1.111       .  S
C3618      H3631   1.102       .  S
C3620      C3625   1.507       .  S
C3620      C3621   1.406       .  A
C3621      C3622   1.405       .  A
C3621      H3626   1.084       .  S
C3622      C3623   1.416       .  A
C3623      C3627   1.508       .  S
C3623      C3624   1.403       .  A
C3624      H3628   1.085       .  S
C3625      H3635   1.111       .  S
C3625      H3636   1.109       .  S
C3625      H3637   1.111       .  S
C3627      H3638   1.110       .  S
C3627      H3639   1.107       .  S
C3627      H3640   1.110       .  S
C3641      C3642   1.401       .  A
C3641      C3646   1.408       .  A
C3641      H3651   1.084       .  S
C3642      C3647   1.488       .  S
C3642      C3643   1.412       .  A
C3643      C3648   1.507       .  S
C3643      C3644   1.405       .  A
C3644      C3645   1.406       .  A
C3644      H3649   1.085       .  S
C3645      C3646   1.416       .  A
C3646      C3650   1.503       .  S
C3647      C3652   1.410       .  A
C3647      C3656   1.405       .  A
C3648      H3664   1.110       .  S
C3648      H3665   1.110       .  S
C3648      H3666   1.111       .  S
C3650      H3661   1.111       .  S
C3650      H3662   1.108       .  S
C3650      H3663   1.108       .  S
C3652      C3657   1.506       .  S
C3652      C3653   1.405       .  A
C3653      C3654   1.406       .  A
C3653      H3658   1.084       .  S
C3654      C3655   1.412       .  A
C3655      C3659   1.506       .  S
C3655      C3656   1.406       .  A
C3656      H3660   1.084       .  S
C3657      H3667   1.111       .  S
C3657      H3668   1.110       .  S
C3657      H3669   1.110       .  S
C3659      H3670   1.110       .  S
C3659      H3671   1.108       .  S
C3659      H3672   1.110       .  S
