geometry optimzed in LAMMPS
_audit_creation_date              2020-11-30 
_audit_creation_method            'lammps2cif' 
_symmetry_space_group_name_H-M    'P1' 
_symmetry_Int_Tables_number       1 
_symmetry_cell_setting            triclinic 
loop_ 
_symmetry_equiv_pos_as_xyz 
  x,y,z 
_cell_length_a                    32.03250413 
_cell_length_b                    32.71760290576116 
_cell_length_c                    31.837932836984773 
_cell_angle_alpha                 90.07490781428534 
_cell_angle_beta                  90.62525574956264 
_cell_angle_gamma                 89.83235830981619 
loop_ 
_atom_site_label 
_atom_site_type_symbol 
_atom_site_fract_x 
_atom_site_fract_y 
_atom_site_fract_z 
_atom_site_charge 
C1          C  0.28872757  0.35045100  0.29987305     0.86500
C2          C  0.33387414  0.34294933  0.28678324    -0.53700
C3          C  0.34725129  0.30397766  0.29381466     0.09500
C4          C  0.31478080  0.27621312  0.31496798     0.20400
C5          C  0.26329932  0.31668332  0.27740624    -0.54400
C6          C  0.27709895  0.27811175  0.28543426     0.09600
C7          C  0.28729905  0.33876501  0.34646086    -0.53900
C8          C  0.30063554  0.29964771  0.35438927     0.10100
H9          H  0.35269262  0.36568028  0.27094093     0.14700
H10         H  0.32580011  0.24457536  0.32142164     0.00400
H11         H  0.23556179  0.32245071  0.25833882     0.15000
H12         H  0.27342145  0.35816964  0.37027850     0.14800
C13         C  0.44594253  0.10545805  0.29793997     0.86500
C14         C  0.44667497  0.09412827  0.34487125    -0.53700
C15         C  0.43621050  0.05415428  0.35242355     0.09500
C16         C  0.42491032  0.03004671  0.31242657     0.20400
C17         C  0.47441034  0.07416734  0.27721599    -0.54400
C18         C  0.46330354  0.03472969  0.28454982     0.09600
C19         C  0.40172489  0.09447756  0.28207002    -0.53900
C20         C  0.39077635  0.05504924  0.28941030     0.10100
H21         H  0.45860815  0.11442225  0.36918067     0.14700
H22         H  0.41591886  0.49692077  0.31736381     0.00400
H23         H  0.50124833  0.08291234  0.25879142     0.15000
H24         H  0.38085148  0.11572972  0.26609596     0.14800
C25         C  0.04615282  0.29466724  0.39183417     0.86500
C26         C  0.09213264  0.28873760  0.40301748    -0.53700
C27         C  0.10255157  0.29930829  0.44351674     0.09500
C28         C  0.06516538  0.31720651  0.46837250     0.20400
C29         C  0.02246757  0.27158733  0.42561956    -0.54400
C30         C  0.03237970  0.28313349  0.46566906     0.09600
C31         C  0.03735376  0.33993011  0.40048021    -0.53900
C32         C  0.04616655  0.35194854  0.44055040     0.10100
H33         H  0.11380891  0.27439228  0.38147755     0.14700
H34         H  0.07235526  0.32743098  0.99997180     0.00400
H35         H  0.50033110  0.24716547  0.41816277     0.15000
H36         H  0.02257431  0.36022350  0.37775384     0.14800
C37         C  0.14227384  0.19679033  0.19956578     0.86500
C38         C  0.15225419  0.15114564  0.20221361    -0.53700
C39         C  0.19247140  0.14100569  0.19157305     0.09500
C40         C  0.21831742  0.17833536  0.17694722     0.20400
C41         C  0.17609780  0.21738779  0.22619732    -0.54400
C42         C  0.21594273  0.20814939  0.21434813     0.09600
C43         C  0.15245742  0.20904642  0.15417709    -0.53900
C44         C  0.19202968  0.19982319  0.14219529     0.10100
H45         H  0.13017944  0.12924926  0.21465410     0.14700
H46         H  0.25078210  0.17090926  0.16761375     0.00400
H47         H  0.16894397  0.23942635  0.25066580     0.15000
H48         H  0.13057483  0.22457576  0.13329736     0.14800
C49         C  0.29158465  0.38955181  0.04493059     0.86500
C50         C  0.28697699  0.40095486  0.09132989    -0.53700
C51         C  0.29740242  0.44077819  0.10074803     0.09500
C52         C  0.31350676  0.46467850  0.06251332     0.20400
C53         C  0.26630174  0.42213536  0.02116547    -0.54400
C54         C  0.27772500  0.46123640  0.03055129     0.09600
C55         C  0.33737381  0.39900810  0.03496073    -0.53900
C56         C  0.34879879  0.43830144  0.04340404     0.10100
H57         H  0.27342696  0.38014608  0.11393720     0.14700
H58         H  0.32245571  0.99791111  0.06991069     0.00400
H59         H  0.24008221  0.41499202  0.00051021     0.15000
H60         H  0.35840807  0.37728694  0.02030940     0.14800
C61         C  0.45169936  0.14268018  0.04675804     0.86500
C62         C  0.40622818  0.15152992  0.03314688    -0.53700
C63         C  0.39409882  0.19093818  0.03855013     0.09500
C64         C  0.42789666  0.21818943  0.05855246     0.20400
C65         C  0.47775838  0.17432569  0.02303115    -0.54400
C66         C  0.46504316  0.21372713  0.02926256     0.09600
C67         C  0.45394953  0.15597763  0.09271960    -0.53900
C68         C  0.44182944  0.19568467  0.09890669     0.10100
H69         H  0.38545683  0.12902761  0.01909760     0.14700
H70         H  0.41796347  0.25038049  0.06360294     0.00400
H71         H  0.50195781  0.16611449  0.00087695     0.15000
H72         H  0.46678043  0.13684477  0.11759161     0.14800
C73         C  0.14113043  0.04741656  0.44955408     0.86500
C74         C  0.15020308  0.03794640  0.40315901    -0.53700
C75         C  0.19030966  0.04530640  0.39170515     0.09500
C76         C  0.21768325  0.06322816  0.42745669     0.20400
C77         C  0.17430978  0.02352181  0.47428787    -0.54400
C78         C  0.21428588  0.03164142  0.46263658     0.09600
C79         C  0.15316733  0.09239199  0.45537832    -0.53900
C80         C  0.19345606  0.10083843  0.44432041     0.10100
H81         H  0.12772353  0.02402440  0.38177491     0.14700
H82         H  0.25036588  0.06975236  0.41830807     0.00400
H83         H  0.16663271  0.00052105  0.49754461     0.15000
H84         H  0.13269677  0.11488581  0.46962360     0.14800
C85         C  0.03931865  0.39349021  0.19593820     0.86500
C86         C  0.08517133  0.40178989  0.20657892    -0.53700
C87         C  0.09698272  0.44120669  0.19919676     0.09500
C88         C  0.06212952  0.46837789  0.18032719     0.20400
C89         C  0.01474085  0.42599657  0.22004733    -0.54400
C90         C  0.02695079  0.46504802  0.21228384     0.09600
C91         C  0.03403496  0.40552152  0.15008841    -0.53900
C92         C  0.04529240  0.44502535  0.14153358     0.10100
H93         H  0.10577293  0.37918469  0.22086338     0.14700
H94         H  0.07198288  0.00008413  0.17270617     0.00400
H95         H  0.49061667  0.41880896  0.24143623     0.15000
H96         H  0.02032320  0.38503644  0.12689966     0.14800
O97         O  0.42187348  0.43205345  0.03166559    -0.78400
C98         C  0.03070972  0.39217460  0.45554942     0.82600
O99         O  0.04563133  0.49941545  0.09017559    -0.79500
O100        O  0.07483295  0.01598919  0.43742396    -0.81000
O101        O  0.42760447  0.03956459  0.42507480    -0.80800
O102        O  0.39035301  0.49057143  0.01423135    -0.79500
Zn103      Zn  0.48391596  0.44201355  0.02166312     1.55700
O104        O  0.48198792  0.01198046  0.39197292    -0.80800
Cd105      Cd  0.43833110  0.02283687  0.48751587     1.59700
Cd106      Cd  0.03055767  0.02965745  0.03257052     1.59600
O107        O  0.43925035  0.07731749  0.01730192    -0.80800
O108        O  0.49333631  0.49506442  0.49538182    -1.92900
Cd109      Cd  0.01857646  0.48487592  0.44053952     1.59900
O110        O  0.00234028  0.08634648  0.04554552    -0.80800
O111        O  0.03321322  0.42318852  0.43133568    -0.79500
C112        C  0.03415964  0.46343898  0.10050607     0.83100
C113        C  0.38927973  0.45461377  0.02940658     0.82700
O114        O  0.01290411  0.39454373  0.49103355    -0.78400
C115        C  0.44873438  0.03359334  0.39191284     0.83600
O116        O  0.01145881  0.44184299  0.07637750    -0.78500
C117        C  0.46506016  0.09939151  0.03746186     0.83700
C118        C  0.09788080  0.03558128  0.46330349     0.84000
O119        O  0.08546795  0.04136186  0.00022305    -0.80900
O120        O  0.14093280  0.49113025  0.23080351    -0.78400
C121        C  0.20627693  0.03082852  0.35087537     0.82600
O122        O  0.24618193  0.08826281  0.19126419    -0.79500
O123        O  0.33227971  0.01328346  0.30025428    -0.81000
O124        O  0.25262383  0.39656089  0.25492634    -0.80800
O125        O  0.16974197  0.43395670  0.20683265    -0.79500
Zn126      Zn  0.19001394  0.02372297  0.25564466     1.55700
O127        O  0.28460516  0.42380332  0.31049403    -0.80800
Cd128      Cd  0.23156469  0.44381335  0.21948234     1.59700
Cd129      Cd  0.27897496  0.03323866  0.20697580     1.59600
O130        O  0.26192415  0.43776707  0.16456395    -0.80800
O131        O  0.24345947  0.49762791  0.24520334    -1.91300
Cd132      Cd  0.27371415  0.48630394  0.29988721     1.59900
O133        O  0.29425864  0.99855463  0.15195338    -0.80800
O134        O  0.24225083  0.01399672  0.34959245    -0.79500
C135        C  0.21003592  0.10012689  0.20326670     0.83100
C136        C  0.13805353  0.45649311  0.21270372     0.82700
O137        O  0.18297627  0.03429945  0.31821528    -0.78400
C138        C  0.27376895  0.39280248  0.28862999     0.83600
O139        O  0.18792497  0.07794230  0.22709940    -0.78500
C140        C  0.28432256  0.45981026  0.14111352     0.83700
C141        C  0.35013515  0.03817983  0.27572852     0.84000
O142        O  0.33381304  0.04933453  0.24056785    -0.80900
O143        O  0.34904731  0.23945360  0.00581326    -0.78400
C144        C  0.28912862  0.27914712  0.39364484     0.82600
O145        O  0.24131052  0.33410613  0.04398099    -0.79500
O146        O  0.16662669  0.26420043  0.43816985    -0.81000
O147        O  0.23191535  0.14241388  0.49189213    -0.80800
O148        O  0.32149655  0.18203659  0.03099859    -0.79500
Zn149      Zn  0.30087451  0.27235752  0.48854308     1.55700
O150        O  0.20766629  0.17126986  0.43296015    -0.80800
Cd151      Cd  0.25837811  0.19008441  0.02215924     1.59700
Cd152      Cd  0.20969057  0.27926222  0.02939851     1.59600
O153        O  0.23306597  0.18886295  0.08168639    -0.80800
O154        O  0.24807492  0.24459036  0.49779222    -1.91300
Cd155      Cd  0.22208707  0.23293331  0.44181145     1.59900
O156        O  0.19555639  0.24655036  0.08462554    -0.80800
O157        O  0.25736469  0.25583041  0.39311349    -0.79500
C158        C  0.27744713  0.34680636  0.03328008     0.83100
C159        C  0.35267176  0.20514012  0.02447645     0.82700
O160        O  0.30878734  0.28766837  0.42746786    -0.78400
C161        C  0.21295641  0.14011562  0.45647298     0.83600
O162        O  0.30137351  0.32515998  0.01064861    -0.78500
C163        C  0.20797222  0.21257696  0.10065162     0.83700
C164        C  0.14340464  0.28575272  0.46179468     0.84000
O165        O  0.15388281  0.29558400  0.99696323    -0.80900
O166        O  0.00404419  0.34591151  0.23909324    -0.78400
C167        C  0.38712978  0.28900230  0.27765288     0.82600
O168        O  0.04346146  0.24398164  0.33690140    -0.79500
O169        O  0.43493046  0.16917228  0.26431910    -0.81000
O170        O  0.48495452  0.23773427  0.14029106    -0.80800
O171        O  0.03527756  0.32112120  0.18259397    -0.79500
Zn172      Zn  0.48053573  0.30079262  0.27104989     1.55700
O173        O  0.42988613  0.20857751  0.17070515    -0.80800
Cd174      Cd  0.02094652  0.26000031  0.19048280     1.59700
Cd175      Cd  0.02961685  0.21296401  0.28112771     1.59600
O176        O  0.07693677  0.23038308  0.18820823    -0.80800
O177        O  0.49192154  0.24943673  0.24447533    -1.91300
Cd178      Cd  0.43722004  0.22303461  0.23364062     1.59900
O179        O  0.08593321  0.19945327  0.24998347    -0.80800
O180        O  0.38787781  0.25501670  0.25833707    -0.79500
C181        C  0.03364073  0.28003879  0.34882105     0.83100
C182        C  0.02529402  0.35098892  0.20608761     0.82700
O183        O  0.41980998  0.31040248  0.28310879    -0.78400
C184        C  0.45186827  0.21623909  0.13856574     0.83600
O185        O  0.01114620  0.30347666  0.32631266    -0.78500
C186        C  0.09888415  0.20892551  0.21334887     0.83700
C187        C  0.45967351  0.14787527  0.28670134     0.84000
O188        O  0.49651703  0.15995841  0.29619029    -0.80900
C189        C  0.25193130  0.49607380  0.01765411    -0.16400
C190        C  0.24990700  0.00754801  0.47844279    -0.31500
H191        H  0.23114605  0.50924930  0.04080539     0.12700
H192        H  0.27223451  0.99562755  0.45604711     0.13200
C193        C  0.01662323  0.26049877  0.50211746    -0.16400
C194        C  0.47836026  0.24699539  0.00191178    -0.31500
H195        H  0.03844705  0.25139972  0.52675800     0.12700
H196        H  0.45602533  0.25760043  0.97837436     0.13200
C197        C  0.48528680  0.99925983  0.26737919    -0.16400
C198        C  0.00763919  0.50108054  0.23167936    -0.31500
H199        H  0.48011587  0.97046848  0.28317286     0.12700
H200        H  0.01245454  0.53014878  0.21621568     0.13200
C201        C  0.25310104  0.24222365  0.27203176    -0.16400
C202        C  0.25221172  0.23047697  0.23170945    -0.31500
H203        H  0.23054013  0.23021458  0.29401509     0.12700
H204        H  0.27553439  0.24165024  0.21006141     0.13200
C205        C  0.28838484  0.35196332  0.79657122     0.86500
C206        C  0.33530553  0.34499911  0.79038816    -0.53700
C207        C  0.34714243  0.30497657  0.79454166     0.09500
C208        C  0.31146066  0.27588100  0.80663569     0.20400
C209        C  0.26748026  0.32145809  0.76602204    -0.54400
C210        C  0.27990606  0.28220428  0.77067586     0.09600
C211        C  0.27934969  0.33540219  0.84033258    -0.53900
C212        C  0.29163934  0.29568382  0.84599942     0.10100
H213        H  0.35628624  0.36872105  0.77961627     0.14700
H214        H  0.32127704  0.24353996  0.81088748     0.00400
H215        H  0.24576772  0.33005666  0.74107701     0.15000
H216        H  0.26404844  0.35323740  0.86454459     0.14800
C217        C  0.44533839  0.10523934  0.79787523     0.86500
C218        C  0.44652595  0.09373407  0.84472435    -0.53700
C219        C  0.43628539  0.05372291  0.85225306     0.09500
C220        C  0.42464802  0.02968534  0.81228823     0.20400
C221        C  0.47365965  0.07410328  0.77672750    -0.54400
C222        C  0.46274415  0.03460420  0.78403868     0.09600
C223        C  0.40098813  0.09416258  0.78234239    -0.53900
C224        C  0.39018683  0.05464024  0.78966542     0.10100
H225        H  0.45849535  0.11402717  0.86901687     0.14700
H226        H  0.41586688  0.49723408  0.81809101     0.00400
H227        H  0.50029887  0.08299799  0.75809085     0.15000
H228        H  0.37997604  0.11540245  0.76654013     0.14800
C229        C  0.04434482  0.29517875  0.89122408     0.86500
C230        C  0.09059590  0.29042764  0.90147417    -0.53700
C231        C  0.10144557  0.30096726  0.94181962     0.09500
C232        C  0.06416405  0.31802523  0.96738667     0.20400
C233        C  0.02185833  0.27146366  0.92533524    -0.54400
C234        C  0.03220009  0.28314948  0.96519822     0.09600
C235        C  0.03451473  0.34019145  0.90001311    -0.53900
C236        C  0.04394717  0.35240828  0.93986395     0.10100
H237        H  0.11214367  0.27643388  0.87955673     0.14700
H238        H  0.07297372  0.32648206  0.50108953     0.00400
H239        H  0.50180286  0.24681870  0.91842796     0.15000
H240        H  0.01903063  0.36022475  0.87750935     0.14800
C241        C  0.14206184  0.19545090  0.70238515     0.86500
C242        C  0.15079884  0.14934838  0.70118989    -0.53700
C243        C  0.19140143  0.13920547  0.69160248     0.09500
C244        C  0.21872039  0.17683022  0.68187859     0.20400
C245        C  0.17497519  0.21236344  0.73264723    -0.54400
C246        C  0.21488442  0.20247758  0.72242196     0.09600
C247        C  0.15476699  0.21120447  0.65894132    -0.53900
C248        C  0.19447451  0.20169379  0.64772359     0.10100
H249        H  0.12790946  0.12706194  0.71121539     0.14700
H250        H  0.25143524  0.16928442  0.67357021     0.00400
H251        H  0.16741196  0.23064268  0.76008691     0.15000
H252        H  0.13389165  0.22816396  0.63820335     0.14800
C253        C  0.29168100  0.39097542  0.54795969     0.86500
C254        C  0.28764079  0.40333258  0.59398929    -0.53700
C255        C  0.29842552  0.44324978  0.60239340     0.09500
C256        C  0.31424610  0.46631006  0.56350434     0.20400
C257        C  0.26641040  0.42314469  0.52358610    -0.54400
C258        C  0.27818297  0.46237271  0.53195691     0.09600
C259        C  0.33745592  0.39994559  0.53731461    -0.53900
C260        C  0.34912778  0.43935013  0.54455547     0.10100
H261        H  0.27417917  0.38303030  0.61713623     0.14700
H262        H  0.32287597  0.99727019  0.57032235     0.00400
H263        H  0.24007812  0.41569717  0.50319826     0.15000
H264        H  0.35825335  0.37785777  0.52289288     0.14800
C265        C  0.45214967  0.14233126  0.54740835     0.86500
C266        C  0.40660164  0.15123297  0.53422771    -0.53700
C267        C  0.39454752  0.19051872  0.54034523     0.09500
C268        C  0.42844881  0.21768388  0.56003904     0.20400
C269        C  0.47807269  0.17420707  0.52379040    -0.54400
C270        C  0.46540475  0.21356593  0.53038044     0.09600
C271        C  0.45463208  0.15524520  0.59353391    -0.53900
C272        C  0.44235631  0.19486387  0.60007447     0.10100
H273        H  0.38565421  0.12885238  0.52023780     0.14700
H274        H  0.41851519  0.24981993  0.56547161     0.00400
H275        H  0.50204161  0.16615913  0.50132855     0.15000
H276        H  0.46743032  0.13589885  0.61824198     0.14800
C277        C  0.13953013  0.04595709  0.94864034     0.86500
C278        C  0.14855736  0.03685851  0.90216068    -0.53700
C279        C  0.18874824  0.04414102  0.89092876     0.09500
C280        C  0.21612147  0.06156789  0.92683679     0.20400
C281        C  0.17254826  0.02162506  0.97320178    -0.54400
C282        C  0.21252191  0.02968982  0.96162659     0.09600
C283        C  0.15167854  0.09076902  0.95485440    -0.53900
C284        C  0.19197936  0.09903241  0.94394213     0.10100
H285        H  0.12605394  0.02321017  0.88061161     0.14700
H286        H  0.24884421  0.06807362  0.91781152     0.00400
H287        H  0.16483629  0.99846296  0.99628248     0.15000
H288        H  0.13118834  0.11333797  0.96895734     0.14800
C289        C  0.03977546  0.39375354  0.69665707     0.86500
C290        C  0.08581049  0.40240405  0.70660247    -0.53700
C291        C  0.09723589  0.44198988  0.69908896     0.09500
C292        C  0.06192471  0.46879514  0.68056796     0.20400
C293        C  0.01544919  0.42621967  0.72114763    -0.54400
C294        C  0.02720570  0.46533762  0.71295742     0.09600
C295        C  0.03370670  0.40574340  0.65091537    -0.53900
C296        C  0.04466585  0.44524144  0.64211464     0.10100
H297        H  0.10673711  0.37998650  0.72070604     0.14700
H298        H  0.07185768  0.00016156  0.67320677     0.00400
H299        H  0.48829716  0.41909781  0.74016318     0.15000
H300        H  0.01978946  0.38515425  0.62794634     0.14800
O301        O  0.42178256  0.43247255  0.53109717    -0.78400
C302        C  0.02913094  0.39284106  0.95485491     0.82600
O303        O  0.04489684  0.49921375  0.59043737    -0.79500
O304        O  0.07296794  0.01560612  0.93627565    -0.81000
O305        O  0.42788479  0.03976217  0.92501936    -0.80800
O306        O  0.39021074  0.49094749  0.51368225    -0.79500
Zn307      Zn  0.48364591  0.44221017  0.52037743     1.55700
O308        O  0.48194608  0.01153408  0.89207408    -0.80800
Cd309      Cd  0.43837992  0.02301626  0.98745133     1.59700
Cd310      Cd  0.03129547  0.03033524  0.53286056     1.59600
O311        O  0.43937806  0.07714988  0.51753221    -0.80800
O312        O  0.49355465  0.49487352  0.99661606    -1.92900
Cd313      Cd  0.01836988  0.48588429  0.93995204     1.59900
O314        O  0.00245124  0.08668701  0.54571803    -0.80800
O315        O  0.03219727  0.42389670  0.93073866    -0.79500
C316        C  0.03337399  0.46333582  0.60102448     0.83100
C317        C  0.38928992  0.45518245  0.52928898     0.82700
O318        O  0.01146868  0.39539091  0.99036937    -0.78400
C319        C  0.44881103  0.03331432  0.89184430     0.83600
O320        O  0.01081946  0.44146250  0.57699742    -0.78500
C321        C  0.46537463  0.09914730  0.53756181     0.83700
C322        C  0.09634726  0.03451030  0.96234457     0.84000
O323        O  0.08659516  0.04277155  0.50100703    -0.80900
O324        O  0.14070283  0.49239868  0.73110443    -0.78400
C325        C  0.20495562  0.02980355  0.85028080     0.82600
O326        O  0.24507722  0.08670872  0.69146066    -0.79500
O327        O  0.33169812  0.01261508  0.80055325    -0.81000
O328        O  0.25279328  0.40073735  0.75466875    -0.80800
O329        O  0.17024049  0.43610469  0.70621269    -0.79500
Zn330      Zn  0.18936011  0.02249021  0.75541200     1.55700
O331        O  0.28568667  0.42519488  0.81078786    -0.80800
Cd332      Cd  0.23159917  0.44726741  0.71967184     1.59700
Cd333      Cd  0.27847871  0.03216623  0.70714388     1.59600
O334        O  0.26275168  0.44124320  0.66576005    -0.80800
O335        O  0.24375060  0.50019194  0.74590939    -1.91300
Cd336      Cd  0.27397788  0.48775122  0.80051693     1.59900
O337        O  0.29423493  0.99760966  0.65221180    -0.80800
O338        O  0.24101483  0.01316454  0.84922100    -0.79500
C339        C  0.20873182  0.09834511  0.70312488     0.83100
C340        C  0.13819032  0.45793561  0.71254059     0.82700
O341        O  0.18182205  0.03321433  0.81755578    -0.78400
C342        C  0.27443958  0.39524328  0.78769146     0.83600
O343        O  0.18655976  0.07623739  0.72685701    -0.78500
C344        C  0.28540533  0.46291960  0.64231886     0.83700
C345        C  0.34952508  0.03758147  0.77604421     0.84000
O346        O  0.33316085  0.04864476  0.74087182    -0.80900
O347        O  0.34939174  0.24048726  0.51173538    -0.78400
C348        C  0.28301687  0.27465770  0.88595060     0.82600
O349        O  0.24055451  0.33603940  0.54655912    -0.79500
O350        O  0.16388635  0.26335901  0.93622417    -0.81000
O351        O  0.23294722  0.14086213  0.98889254    -0.80800
O352        O  0.32196479  0.18138767  0.53258577    -0.79500
Zn353      Zn  0.29951491  0.27106766  0.98174912     1.55700
O354        O  0.20308172  0.16965691  0.93255612    -0.80800
Cd355      Cd  0.25871027  0.19067846  0.52588605     1.59700
Cd356      Cd  0.21017094  0.27999684  0.53315559     1.59600
O357        O  0.23484126  0.18981387  0.58647088    -0.80800
O358        O  0.24697602  0.24358822  0.99348456    -1.91300
Cd359      Cd  0.21856561  0.23096564  0.93890281     1.59900
O360        O  0.19782439  0.24783169  0.58943845    -0.80800
O361        O  0.25147395  0.25121077  0.88745601    -0.79500
C362        C  0.27744636  0.34804106  0.53762962     0.83100
C363        C  0.35305361  0.20501097  0.52761886     0.82700
O364        O  0.30405831  0.28415346  0.91886120    -0.78400
C365        C  0.21123632  0.13848060  0.95513696     0.83600
O366        O  0.30245664  0.32538661  0.51758973    -0.78500
C367        C  0.21046470  0.21404175  0.60583110     0.83700
C368        C  0.14209616  0.28652456  0.95959711     0.84000
O369        O  0.15401093  0.29404681  0.49976203    -0.80900
O370        O  0.00361752  0.34605540  0.73913899    -0.78400
C371        C  0.38724206  0.28988909  0.77893073     0.82600
O372        O  0.04175428  0.24397694  0.83707198    -0.79500
O373        O  0.43396495  0.16939301  0.76519174    -0.81000
O374        O  0.48475511  0.23700116  0.64154903    -0.80800
O375        O  0.03595728  0.32115296  0.68337415    -0.79500
Zn376      Zn  0.48054764  0.30101474  0.77222097     1.55700
O377        O  0.42943671  0.20813195  0.67171779    -0.80800
Cd378      Cd  0.02115510  0.25979968  0.69085988     1.59700
Cd379      Cd  0.02837667  0.21269214  0.78161227     1.59600
O380        O  0.07725596  0.22992612  0.68986546    -0.80800
O381        O  0.49144147  0.24960438  0.74540230    -1.91300
Cd382      Cd  0.43667938  0.22328814  0.73456946     1.59900
O383        O  0.08459204  0.19802270  0.75132085    -0.80800
O384        O  0.38786194  0.25613582  0.75909856    -0.79500
C385        C  0.03187435  0.28014223  0.84852874     0.83100
C386        C  0.02568136  0.35110810  0.70668600     0.82700
O387        O  0.42005226  0.31092442  0.78497750    -0.78400
C388        C  0.45184052  0.21538666  0.63976978     0.83600
O389        O  0.00970751  0.30346755  0.82567324    -0.78500
C390        C  0.09841791  0.20782326  0.71514961     0.83700
C391        C  0.45900475  0.14779707  0.78691776     0.84000
O392        O  0.49601968  0.15976163  0.79606812    -0.80900
C393        C  0.25289254  0.49716114  0.51804126    -0.16400
C394        C  0.24794432  0.00528900  0.97711319    -0.31500
H395        H  0.23304584  0.51191843  0.54103750     0.12700
H396        H  0.26857222  0.99118456  0.95438619     0.13200
C397        C  0.01754816  0.25987814  0.00167280    -0.16400
C398        C  0.47819793  0.24702478  0.50279811    -0.31500
H399        H  0.04012835  0.24963089  0.02512174     0.12700
H400        H  0.45517060  0.25824301  0.48025967     0.13200
C401        C  0.48476466  0.99927325  0.76666509    -0.16400
C402        C  0.00735409  0.50140739  0.73166311    -0.31500
H403        H  0.47983945  0.97044417  0.78246463     0.12700
H404        H  0.01191498  0.53026645  0.71571663     0.13200
C405        C  0.26751444  0.25191414  0.73859117    -0.16400
C406        C  0.24961170  0.21684144  0.74915623    -0.31500
H407        H  0.26249481  0.26329100  0.70679832     0.12700
H408        H  0.24992303  0.20760231  0.78193687     0.13200
C409        C  0.28856628  0.85013382  0.29931107     0.86500
C410        C  0.33381772  0.84243582  0.28660190    -0.53700
C411        C  0.34682547  0.80325116  0.29321439     0.09500
C412        C  0.31391104  0.77545217  0.31357750     0.20400
C413        C  0.26311326  0.81679778  0.27609083    -0.54400
C414        C  0.27649000  0.77800345  0.28376124     0.09600
C415        C  0.28656980  0.83777360  0.34567671    -0.53900
C416        C  0.29961600  0.79847198  0.35313153     0.10100
H417        H  0.35302647  0.86525833  0.27138904     0.14700
H418        H  0.32460292  0.74364808  0.31971725     0.00400
H419        H  0.23546301  0.82297870  0.25703499     0.15000
H420        H  0.27274101  0.85697714  0.36969333     0.14800
C421        C  0.44553084  0.60475434  0.29721105     0.86500
C422        C  0.44605768  0.59333254  0.34408330    -0.53700
C423        C  0.43568403  0.55333754  0.35154586     0.09500
C424        C  0.42458817  0.52925400  0.31143436     0.20400
C425        C  0.47410772  0.57358818  0.27651610    -0.54400
C426        C  0.46308004  0.53411635  0.28368632     0.09600
C427        C  0.40136819  0.59371874  0.28110073    -0.53900
C428        C  0.39043221  0.55423267  0.28833895     0.10100
H429        H  0.45785706  0.61361605  0.36846860     0.14700
H430        H  0.41616345  0.99774988  0.31844913     0.00400
H431        H  0.50101942  0.58245240  0.25826048     0.15000
H432        H  0.38051505  0.61499974  0.26514397     0.14800
C433        C  0.04512648  0.79512712  0.39097627     0.86500
C434        C  0.09127247  0.78989721  0.40165378    -0.53700
C435        C  0.10187975  0.80030846  0.44209944     0.09500
C436        C  0.06446244  0.81764758  0.46738907     0.20400
C437        C  0.02212512  0.77152770  0.42487579    -0.54400
C438        C  0.03214370  0.78306074  0.46489944     0.09600
C439        C  0.03564902  0.84019408  0.39980411    -0.53900
C440        C  0.04477139  0.85226370  0.43976586     0.10100
H441        H  0.11293311  0.77587073  0.37987729     0.14700
H442        H  0.07397901  0.82763119  0.99913055     0.00400
H443        H  0.50124696  0.74661434  0.41843971     0.15000
H444        H  0.02049992  0.86037552  0.37721313     0.14800
C445        C  0.14081653  0.69548268  0.19896066     0.86500
C446        C  0.15111317  0.64988831  0.20180108    -0.53700
C447        C  0.19141419  0.63995768  0.19112115     0.09500
C448        C  0.21701657  0.67739931  0.17650139     0.20400
C449        C  0.17454137  0.71638415  0.22553190    -0.54400
C450        C  0.21444204  0.70736773  0.21369933     0.09600
C451        C  0.15098499  0.70762403  0.15353976    -0.53900
C452        C  0.19068223  0.69865666  0.14175743     0.10100
H453        H  0.12917094  0.62788295  0.21427571     0.14700
H454        H  0.24954062  0.67016331  0.16721583     0.00400
H455        H  0.16727541  0.73859547  0.24980081     0.15000
H456        H  0.12913021  0.72313162  0.13261362     0.14800
C457        C  0.29106226  0.89048110  0.04712354     0.86500
C458        C  0.28744788  0.90231178  0.09335157    -0.53700
C459        C  0.29810940  0.94219116  0.10211030     0.09500
C460        C  0.31338081  0.96577048  0.06330648     0.20400
C461        C  0.26537244  0.92275036  0.02339571    -0.54400
C462        C  0.27700116  0.96194545  0.03207871     0.09600
C463        C  0.33667059  0.89982800  0.03608705    -0.53900
C464        C  0.34824822  0.93918743  0.04375436     0.10100
H465        H  0.27434237  0.88168670  0.11640538     0.14700
H466        H  0.32244547  0.49675192  0.06964004     0.00400
H467        H  0.23900456  0.91536255  0.00302786     0.15000
H468        H  0.35748582  0.87797343  0.02132676     0.14800
C469        C  0.45300466  0.64281649  0.04665425     0.86500
C470        C  0.40723509  0.65141839  0.03387421    -0.53700
C471        C  0.39487038  0.69062194  0.04013295     0.09500
C472        C  0.42876206  0.71798473  0.05961237     0.20400
C473        C  0.47843552  0.67490357  0.02282020    -0.54400
C474        C  0.46545878  0.71413885  0.02969705     0.09600
C475        C  0.45588424  0.65574370  0.09271239    -0.53900
C476        C  0.44344067  0.69526009  0.09940012     0.10100
H477        H  0.38643038  0.62894221  0.01983741     0.14700
H478        H  0.41865676  0.75004825  0.06517990     0.00400
H479        H  0.50251579  0.66713919  0.00037780     0.15000
H480        H  0.46911067  0.63648584  0.11727208     0.14800
C481        C  0.14057313  0.54654948  0.44949058     0.86500
C482        C  0.14934148  0.53688665  0.40300940    -0.53700
C483        C  0.18938100  0.54431022  0.39128059     0.09500
C484        C  0.21692670  0.56231395  0.42674370     0.20400
C485        C  0.17394917  0.52276731  0.47407180    -0.54400
C486        C  0.21379264  0.53082235  0.46200972     0.09600
C487        C  0.15258239  0.59155078  0.45495684    -0.53900
C488        C  0.19275542  0.59995146  0.44349345     0.10100
H489        H  0.12674597  0.52290395  0.38179399     0.14700
H490        H  0.24954039  0.56883996  0.41735482     0.00400
H491        H  0.16652008  0.49981917  0.49747077     0.15000
H492        H  0.13219582  0.61411286  0.46921158     0.14800
C493        C  0.03990576  0.89319367  0.19537888     0.86500
C494        C  0.08603755  0.90151470  0.20510956    -0.53700
C495        C  0.09771157  0.94105062  0.19772369     0.09500
C496        C  0.06247772  0.96813839  0.17941144     0.20400
C497        C  0.01592138  0.92572676  0.22005508    -0.54400
C498        C  0.02792262  0.96477802  0.21203335     0.09600
C499        C  0.03368864  0.90533367  0.14966777    -0.53900
C500        C  0.04486013  0.94480098  0.14089860     0.10100
H501        H  0.10681924  0.87894561  0.21917457     0.14700
H502        H  0.07180157  0.50030870  0.17378868     0.00400
H503        H  0.49004401  0.91890648  0.24269609     0.15000
H504        H  0.01953114  0.88488161  0.12671760     0.14800
O505        O  0.42115883  0.93261107  0.03145003    -0.78400
C506        C  0.02978195  0.89269185  0.45468756     0.82600
O507        O  0.04486283  0.99900484  0.08934881    -0.79500
O508        O  0.07431083  0.51512699  0.43802329    -0.81000
O509        O  0.42759561  0.53949833  0.42442550    -0.80800
O510        O  0.38960384  0.99093595  0.01343251    -0.79500
Zn511      Zn  0.48324790  0.94226734  0.02148819     1.55700
O512        O  0.48147472  0.51119407  0.39116744    -0.80800
Cd513      Cd  0.43861037  0.52291965  0.48687641     1.59700
Cd514      Cd  0.03130531  0.53049417  0.03353930     1.59600
O515        O  0.44028240  0.57733063  0.01755666    -0.80800
O516        O  0.49306549  0.99490008  0.49589790    -1.92900
Cd517      Cd  0.01881864  0.98575922  0.43950105     1.59900
O518        O  0.00261622  0.58712563  0.04648605    -0.80800
O519        O  0.03285408  0.92374292  0.43054776    -0.79500
C520        C  0.03348168  0.96306396  0.09982338     0.83100
C521        C  0.38858068  0.95517924  0.02905475     0.82700
O522        O  0.01187684  0.89522116  0.49008160    -0.78400
C523        C  0.44831341  0.53294292  0.39111451     0.83600
O524        O  0.01088914  0.94132647  0.07570429    -0.78500
C525        C  0.46642502  0.59961860  0.03702376     0.83700
C526        C  0.09745409  0.53480585  0.46367674     0.84000
O527        O  0.08632876  0.54289561  0.00116284    -0.80900
O528        O  0.14117260  0.99113432  0.23044399    -0.78400
C529        C  0.20535687  0.53005482  0.35042864     0.82600
O530        O  0.24523806  0.58714566  0.19016498    -0.79500
O531        O  0.33162180  0.51295542  0.29968306    -0.81000
O532        O  0.25229058  0.89699020  0.25528780    -0.80800
O533        O  0.17061976  0.93460827  0.20575783    -0.79500
Zn534      Zn  0.18976850  0.52321226  0.25540362     1.55700
O535        O  0.28540375  0.92369209  0.31042325    -0.80800
Cd536      Cd  0.23207941  0.94471209  0.22010948     1.59700
Cd537      Cd  0.27837141  0.53207947  0.20590509     1.59600
O538        O  0.26340644  0.93924703  0.16606060    -0.80800
O539        O  0.24392035  0.99843621  0.24590937    -1.91300
Cd540      Cd  0.27441369  0.98656674  0.30037701     1.59900
O541        O  0.29353129  0.49683459  0.15102109    -0.80800
O542        O  0.24134449  0.51330031  0.34911328    -0.79500
C543        C  0.20925615  0.59913864  0.20264022     0.83100
C544        C  0.13865564  0.95672174  0.21170265     0.82700
O545        O  0.18221368  0.53378663  0.31774525    -0.78400
C546        C  0.27394164  0.89283232  0.28859402     0.83600
O547        O  0.18747436  0.57712304  0.22687184    -0.78500
C548        C  0.28541687  0.96139138  0.14239267     0.83700
C549        C  0.34967817  0.53737400  0.27479134     0.84000
O550        O  0.33343955  0.54811329  0.23942769    -0.80900
O551        O  0.34959318  0.74037763  0.01092319    -0.78400
C552        C  0.28833411  0.77769401  0.39222760     0.82600
O553        O  0.24019509  0.83531307  0.04557978    -0.79500
O554        O  0.16544102  0.76415549  0.43653540    -0.81000
O555        O  0.23290106  0.64132007  0.48957257    -0.80800
O556        O  0.32222631  0.68131181  0.03173033    -0.79500
Zn557      Zn  0.30064467  0.77124508  0.48702622     1.55700
O558        O  0.20551358  0.67065371  0.43229433    -0.80800
Cd559      Cd  0.25904551  0.69047036  0.02311035     1.59700
Cd560      Cd  0.20966383  0.77969645  0.03067626     1.59600
O561        O  0.23268276  0.68866483  0.08196211    -0.80800
O562        O  0.24760080  0.74383879  0.49575044    -1.91300
Cd563      Cd  0.22068631  0.73226503  0.44035028     1.59900
O564        O  0.19491985  0.74626792  0.08515589    -0.80800
O565        O  0.25623056  0.75479337  0.39176513    -0.79500
C566        C  0.27694418  0.84758629  0.03643588     0.83100
C567        C  0.35331378  0.70499482  0.02704908     0.82700
O568        O  0.30844760  0.78583672  0.42589466    -0.78400
C569        C  0.21230733  0.63927244  0.45511463     0.83600
O570        O  0.30189216  0.82523885  0.01595090    -0.78500
C571        C  0.20712831  0.71203880  0.10075250     0.83700
C572        C  0.14268484  0.78630059  0.46005938     0.84000
O573        O  0.15425728  0.79482378  0.99709904    -0.80900
O574        O  0.00370593  0.84579310  0.23825664    -0.78400
C575        C  0.38690747  0.78821087  0.27757179     0.82600
O576        O  0.04291158  0.74443566  0.33623964    -0.79500
O577        O  0.43472895  0.66871616  0.26413117    -0.81000
O578        O  0.48601214  0.73729327  0.14103542    -0.80800
O579        O  0.03559434  0.82061679  0.18237519    -0.79500
Zn580      Zn  0.48052619  0.79991527  0.27202030     1.55700
O581        O  0.43079498  0.70793948  0.17096322    -0.80800
Cd582      Cd  0.01977085  0.75963780  0.18993957     1.59700
Cd583      Cd  0.02882740  0.71296147  0.28099567     1.59600
O584        O  0.07524988  0.72878166  0.18735943    -0.80800
O585        O  0.49230732  0.74880991  0.24500842    -1.91300
Cd586      Cd  0.43750820  0.72258910  0.23373211     1.59900
O587        O  0.08477169  0.69885664  0.24962617    -0.80800
O588        O  0.38775468  0.75458019  0.25761996    -0.79500
C589        C  0.03267485  0.78038170  0.34807886     0.83100
C590        C  0.02559536  0.85066774  0.20562691     0.82700
O591        O  0.41967833  0.80921754  0.28406808    -0.78400
C592        C  0.45309712  0.71562223  0.13909527     0.83600
O593        O  0.00996496  0.80357191  0.32554785    -0.78500
C594        C  0.09738745  0.70766123  0.21269875     0.83700
C595        C  0.45944741  0.64721146  0.28629255     0.84000
O596        O  0.49639886  0.65911890  0.29582143    -0.80900
C597        C  0.25184999  0.99675635  0.01794495    -0.16400
C598        C  0.24940947  0.50652090  0.47735979    -0.31500
H599        H  0.23248397  0.01219493  0.04089236     0.12700
H600        H  0.27049233  0.49313700  0.45460365     0.13200
C601        C  0.01677007  0.76009365  0.50140674    -0.16400
C602        C  0.47866038  0.74813694  0.00323091    -0.31500
H603        H  0.03863875  0.75160176  0.52623875     0.12700
H604        H  0.45575425  0.76040121  0.98114183     0.13200
C605        C  0.48538339  0.49883915  0.26653504    -0.16400
C606        C  0.00859683  0.00081813  0.23138605    -0.31500
H607        H  0.48046152  0.46999865  0.28232093     0.12700
H608        H  0.01337967  0.02981529  0.21577805     0.13200
C609        C  0.25178921  0.74246720  0.27060031    -0.16400
C610        C  0.25053933  0.73039727  0.23040799    -0.31500
H611        H  0.22954303  0.73050659  0.29293416     0.12700
H612        H  0.27363458  0.74142545  0.20843667     0.13200
C613        C  0.28843558  0.84992512  0.79939933     0.86500
C614        C  0.33336120  0.84241968  0.78556535    -0.53700
C615        C  0.34678372  0.80341602  0.79229717     0.09500
C616        C  0.31463472  0.77559881  0.81375531     0.20400
C617        C  0.26262093  0.81628385  0.77719218    -0.54400
C618        C  0.27651994  0.77767876  0.78489064     0.09600
C619        C  0.28772834  0.83802986  0.84593138    -0.53900
C620        C  0.30113254  0.79885573  0.85342273     0.10100
H621        H  0.35207942  0.86525176  0.76976006     0.14700
H622        H  0.32573620  0.74393054  0.81992148     0.00400
H623        H  0.23464158  0.82215546  0.75852227     0.15000
H624        H  0.27408013  0.85726091  0.87003239     0.14800
C625        C  0.44593790  0.60505460  0.79856890     0.86500
C626        C  0.44692160  0.59325824  0.84536119    -0.53700
C627        C  0.43640563  0.55324356  0.85258983     0.09500
C628        C  0.42474128  0.52955287  0.81238281     0.20400
C629        C  0.47414117  0.57385642  0.77727268    -0.54400
C630        C  0.46290941  0.53437706  0.78420675     0.09600
C631        C  0.40162885  0.59442736  0.78290696    -0.53900
C632        C  0.39061280  0.55500182  0.78984234     0.10100
H633        H  0.45895149  0.61332784  0.86981937     0.14700
H634        H  0.41609885  0.99733438  0.81829465     0.00400
H635        H  0.50081598  0.58267525  0.75864470     0.15000
H636        H  0.38070901  0.61591073  0.76732544     0.14800
C637        C  0.04590281  0.79534198  0.89038416     0.86500
C638        C  0.09216960  0.79026172  0.90071485    -0.53700
C639        C  0.10302034  0.80092394  0.94105256     0.09500
C640        C  0.06577992  0.81818467  0.96655900     0.20400
C641        C  0.02323695  0.77179157  0.92459357    -0.54400
C642        C  0.03368726  0.78345240  0.96446452     0.09600
C643        C  0.03639601  0.84040322  0.89914553    -0.53900
C644        C  0.04569436  0.85258467  0.93901059     0.10100
H645        H  0.11368835  0.77609738  0.87888930     0.14700
H646        H  0.07244758  0.82694844  0.50005655     0.00400
H647        H  0.50135587  0.74668557  0.91896072     0.15000
H648        H  0.02093095  0.86046619  0.87665449     0.14800
C649        C  0.14106495  0.69695117  0.69930161     0.86500
C650        C  0.15118126  0.65132757  0.70202207    -0.53700
C651        C  0.19148103  0.64136755  0.69142573     0.09500
C652        C  0.21720633  0.67863450  0.67691258     0.20400
C653        C  0.17482165  0.71765799  0.72600445    -0.54400
C654        C  0.21467398  0.70845347  0.71414608     0.09600
C655        C  0.15134928  0.70914473  0.65394752    -0.53900
C656        C  0.19097825  0.69991403  0.64221380     0.10100
H657        H  0.12917990  0.62935501  0.71445318     0.14700
H658        H  0.24971505  0.67129195  0.66764610     0.00400
H659        H  0.16768295  0.73976298  0.75041756     0.15000
H660        H  0.12956663  0.72465839  0.63294908     0.14800
C661        C  0.29124302  0.89005314  0.54683078     0.86500
C662        C  0.28741944  0.90169097  0.59309645    -0.53700
C663        C  0.29811793  0.94150091  0.60209189     0.09500
C664        C  0.31373009  0.96519166  0.56349672     0.20400
C665        C  0.26573621  0.92254598  0.52316505    -0.54400
C666        C  0.27749446  0.96166309  0.53209282     0.09600
C667        C  0.33692557  0.89929980  0.53605679    -0.53900
C668        C  0.34859138  0.93860070  0.54393746     0.10100
H669        H  0.27406737  0.88103003  0.61597280     0.14700
H670        H  0.32342972  0.49846958  0.56985082     0.00400
H671        H  0.23929587  0.91536516  0.50281574     0.15000
H672        H  0.35768604  0.87746294  0.52119434     0.14800
C673        C  0.45264711  0.64231205  0.54661300     0.86500
C674        C  0.40666055  0.65081552  0.53472656    -0.53700
C675        C  0.39441836  0.69005007  0.54097340     0.09500
C676        C  0.42865605  0.71751640  0.55974681     0.20400
C677        C  0.47756984  0.67430148  0.52215376    -0.54400
C678        C  0.46477899  0.71355362  0.52910403     0.09600
C679        C  0.45641251  0.65535677  0.59258304    -0.53900
C680        C  0.44407074  0.69488728  0.59938776     0.10100
H681        H  0.38566041  0.62828745  0.52107877     0.14700
H682        H  0.41864971  0.74960056  0.56534797     0.00400
H683        H  0.50118228  0.66644107  0.49924490     0.15000
H684        H  0.46992028  0.63610201  0.61699226     0.14800
C685        C  0.14047953  0.54756111  0.94934766     0.86500
C686        C  0.14938891  0.53796793  0.90292486    -0.53700
C687        C  0.18945670  0.54545157  0.89140539     0.09500
C688        C  0.21690923  0.56332181  0.92694336     0.20400
C689        C  0.17375584  0.52374615  0.97403946    -0.54400
C690        C  0.21366551  0.53179548  0.96218579     0.09600
C691        C  0.15247571  0.59258312  0.95487456    -0.53900
C692        C  0.19268806  0.60094647  0.94348408     0.10100
H693        H  0.12686508  0.52406051  0.88157741     0.14700
H694        H  0.24955142  0.56984986  0.91764623     0.00400
H695        H  0.16617027  0.50069392  0.99727417     0.15000
H696        H  0.13203648  0.61518122  0.96899137     0.14800
C697        C  0.03905171  0.89338961  0.69500076     0.86500
C698        C  0.08512563  0.90131869  0.70503361    -0.53700
C699        C  0.09705896  0.94075678  0.69789868     0.09500
C700        C  0.06210041  0.96824313  0.67967565     0.20400
C701        C  0.01504976  0.92586991  0.71974518    -0.54400
C702        C  0.02727191  0.96490996  0.71205420     0.09600
C703        C  0.03317830  0.90576081  0.64937047    -0.53900
C704        C  0.04464258  0.94521413  0.64094171     0.10100
H705        H  0.10572712  0.87851870  0.71898138     0.14700
H706        H  0.07125259  0.50077448  0.67376770     0.00400
H707        H  0.49005086  0.91899128  0.74202833     0.15000
H708        H  0.01909619  0.88547127  0.62621816     0.14800
O709        O  0.42133263  0.93190623  0.53055942    -0.78400
C710        C  0.03013736  0.89274179  0.95399540     0.82600
O711        O  0.04524052  0.99962402  0.58966886    -0.79500
O712        O  0.07425760  0.51605149  0.93764253    -0.81000
O713        O  0.42835513  0.53948471  0.92548766    -0.80800
O714        O  0.38986402  0.99070712  0.51411704    -0.79500
Zn715      Zn  0.48339968  0.94187952  0.52056632     1.55700
O716        O  0.48155923  0.51027028  0.89204195    -0.80800
Cd717      Cd  0.43898681  0.52283547  0.98797673     1.59700
Cd718      Cd  0.03102188  0.52982861  0.53359149     1.59600
O719        O  0.43985817  0.57715243  0.51687321    -0.80800
O720        O  0.49307917  0.99519305  0.99654492    -1.92900
Cd721      Cd  0.01735812  0.98527318  0.93882965     1.59900
O722        O  0.00195170  0.58624462  0.54624468    -0.80800
O723        O  0.03239525  0.92371169  0.92970284    -0.79500
C724        C  0.03369311  0.96368019  0.59994176     0.83100
C725        C  0.38884668  0.95467163  0.52906314     0.82700
O726        O  0.01244772  0.89508302  0.98952340    -0.78400
C727        C  0.44879410  0.53255427  0.89208668     0.83600
O728        O  0.01119167  0.94206304  0.57567957    -0.78500
C729        C  0.46597979  0.59921376  0.53664093     0.83700
C730        C  0.09737536  0.53571159  0.96337415     0.84000
O731        O  0.08634378  0.54214003  0.50142995    -0.80900
O732        O  0.14073622  0.99032689  0.73047250    -0.78400
C733        C  0.20554070  0.53144455  0.85064603     0.82600
O734        O  0.24573733  0.58927498  0.69127857    -0.79500
O735        O  0.33165336  0.51421790  0.80074269    -0.81000
O736        O  0.25233455  0.89630664  0.75487988    -0.80800
O737        O  0.16990029  0.93364049  0.70590654    -0.79500
Zn738      Zn  0.18970814  0.52491136  0.75565311     1.55700
O739        O  0.28419700  0.92321365  0.81070804    -0.80800
Cd740      Cd  0.23147489  0.94380820  0.71983472     1.59700
Cd741      Cd  0.27900413  0.53453259  0.70692970     1.59600
O742        O  0.26251978  0.93858359  0.66557376    -0.80800
O743        O  0.24335487  0.99739243  0.74580859    -1.91300
Cd744      Cd  0.27364808  0.98591224  0.80038189     1.59900
O745        O  0.29468277  0.49995377  0.65191581    -0.80800
O746        O  0.24145215  0.51453018  0.84951374    -0.79500
C747        C  0.20939930  0.60078834  0.70313990     0.83100
C748        C  0.13807050  0.95595953  0.71182577     0.82700
O749        O  0.18251489  0.53546573  0.81791205    -0.78400
C750        C  0.27339855  0.89234334  0.78859339     0.83600
O751        O  0.18739320  0.57858108  0.72696480    -0.78500
C752        C  0.28505009  0.96062081  0.64229334     0.83700
C753        C  0.34989460  0.53865257  0.77608628     0.84000
O754        O  0.33386956  0.54988008  0.74079892    -0.80900
O755        O  0.34925358  0.73957278  0.51113917    -0.78400
C756        C  0.28959632  0.77812518  0.89239983     0.82600
O757        O  0.24023921  0.83509216  0.54509062    -0.79500
O758        O  0.16682755  0.76529785  0.93539879    -0.81000
O759        O  0.23313050  0.64223079  0.98914799    -0.80800
O760        O  0.32176403  0.68079644  0.53263194    -0.79500
Zn761      Zn  0.30088106  0.77201162  0.98719481     1.55700
O762        O  0.20565123  0.67155382  0.93192660    -0.80800
Cd763      Cd  0.25865473  0.68987878  0.52348275     1.59700
Cd764      Cd  0.20955677  0.77958325  0.53056563     1.59600
O765        O  0.23246309  0.68878142  0.58236521    -0.80800
O766        O  0.24794077  0.74444195  0.99563737    -1.91300
Cd767      Cd  0.22163230  0.73292553  0.93989345     1.59900
O768        O  0.19526076  0.74677321  0.58524389    -0.80800
O769        O  0.25793502  0.75466104  0.89155156    -0.79500
C770        C  0.27703246  0.84721490  0.53598754     0.83100
C771        C  0.35288499  0.70439869  0.52777569     0.82700
O772        O  0.30893086  0.78689992  0.92632079    -0.78400
C773        C  0.21233561  0.64022789  0.95484277     0.83600
O774        O  0.30194383  0.82471760  0.51559719    -0.78500
C775        C  0.20730068  0.71262855  0.60106637     0.83700
C776        C  0.14376453  0.78696134  0.95906699     0.84000
O777        O  0.15369129  0.79477473  0.49778741    -0.80900
O778        O  0.00334125  0.84600563  0.73787046    -0.78400
C779        C  0.38682982  0.78858377  0.77656440     0.82600
O780        O  0.04251290  0.74441079  0.83590416    -0.79500
O781        O  0.43498118  0.66883009  0.76506929    -0.81000
O782        O  0.48640311  0.73709456  0.64120538    -0.80800
O783        O  0.03459883  0.82104649  0.68149736    -0.79500
Zn784      Zn  0.48031062  0.80054483  0.77165175     1.55700
O785        O  0.43139872  0.70728101  0.67106388    -0.80800
Cd786      Cd  0.01969280  0.76008438  0.68957013     1.59700
Cd787      Cd  0.02838244  0.71346219  0.78037629     1.59600
O788        O  0.07560585  0.73022387  0.68747981    -0.80800
O789        O  0.49203103  0.74916380  0.74519646    -1.91300
Cd790      Cd  0.43762715  0.72241284  0.73384816     1.59900
O791        O  0.08464761  0.69979332  0.74950764    -0.80800
O792        O  0.38783479  0.75471762  0.75703827    -0.79500
C793        C  0.03305955  0.78059483  0.84759684     0.83100
C794        C  0.02473783  0.85096199  0.70496886     0.82700
O795        O  0.41945245  0.80983313  0.78292698    -0.78400
C796        C  0.45365608  0.71517059  0.63919507     0.83600
O797        O  0.01081998  0.80412176  0.82497735    -0.78500
C798        C  0.09760182  0.70903130  0.71283771     0.83700
C799        C  0.45961008  0.64754364  0.78760256     0.84000
O800        O  0.49636399  0.65965768  0.79730323    -0.80900
C801        C  0.25207380  0.99657532  0.51878888    -0.16400
C802        C  0.24927105  0.50729977  0.97740193    -0.31500
H803        H  0.23090852  0.00976889  0.54157830     0.12700
H804        H  0.27128879  0.49545683  0.95465658     0.13200
C805        C  0.01911333  0.76033398  0.00113407    -0.16400
C806        C  0.47759795  0.74726577  0.50201833    -0.31500
H807        H  0.04174290  0.75033395  0.02464527     0.12700
H808        H  0.45519047  0.75769375  0.47846856     0.13200
C809        C  0.48447319  0.49902605  0.76621769    -0.16400
C810        C  0.00785199  0.00096853  0.73138522    -0.31500
H811        H  0.47963870  0.47011194  0.78189972     0.12700
H812        H  0.01340059  0.03005713  0.71625210     0.13200
C813        C  0.25258189  0.74183566  0.77149384    -0.16400
C814        C  0.25085849  0.73102948  0.73099636    -0.31500
H815        H  0.23087257  0.72892190  0.79381122     0.12700
H816        H  0.27334954  0.74312888  0.70897520     0.13200
C817        C  0.78912224  0.35056080  0.29934249     0.86500
C818        C  0.83460913  0.34310924  0.28723387    -0.53700
C819        C  0.84768033  0.30391376  0.29376166     0.09500
C820        C  0.81452033  0.27591403  0.31352378     0.20400
C821        C  0.76410573  0.31728729  0.27558711    -0.54400
C822        C  0.77749340  0.27850591  0.28324670     0.09600
C823        C  0.78645760  0.33793678  0.34558049    -0.53900
C824        C  0.79947330  0.29862601  0.35296879     0.10100
H825        H  0.85388464  0.36606454  0.27231894     0.14700
H826        H  0.82519384  0.24410076  0.31963605     0.00400
H827        H  0.73649524  0.32346958  0.25646673     0.15000
H828        H  0.77221357  0.35695815  0.36950227     0.14800
C829        C  0.94639156  0.10452585  0.29718540     0.86500
C830        C  0.94711289  0.09308452  0.34405388    -0.53700
C831        C  0.93651912  0.05315748  0.35158796     0.09500
C832        C  0.92498814  0.02913400  0.31154763     0.20400
C833        C  0.97464283  0.07315201  0.27636037    -0.54400
C834        C  0.96333853  0.03373378  0.28354778     0.09600
C835        C  0.90204936  0.09373123  0.28131638    -0.53900
C836        C  0.89084804  0.05431666  0.28862789     0.10100
H837        H  0.95914771  0.11330463  0.36838027     0.14700
H838        H  0.91628174  0.49679617  0.31882007     0.00400
H839        H  0.00152470  0.08184461  0.25797789     0.15000
H840        H  0.88128563  0.11511784  0.26539751     0.14800
C841        C  0.54460965  0.29546070  0.39085998     0.86500
C842        C  0.59077628  0.28994428  0.40128446    -0.53700
C843        C  0.60167614  0.30052196  0.44159103     0.09500
C844        C  0.56455156  0.31821468  0.46699750     0.20400
C845        C  0.52159435  0.27219027  0.42502810    -0.54400
C846        C  0.53206506  0.28376961  0.46492407     0.09600
C847        C  0.53553942  0.34062219  0.39944514    -0.53900
C848        C  0.54492518  0.35279818  0.43928550     0.10100
H849        H  0.61220993  0.27562054  0.37947977     0.14700
H850        H  0.57332271  0.32746134  0.00051198     0.00400
H851        H  0.00096959  0.24684518  0.41839943     0.15000
H852        H  0.52034471  0.36077502  0.37685393     0.14800
C853        C  0.64094756  0.19611062  0.19999211     0.86500
C854        C  0.65095179  0.15043127  0.20290154    -0.53700
C855        C  0.69113808  0.14022155  0.19207628     0.09500
C856        C  0.71690962  0.17748621  0.17727485     0.20400
C857        C  0.67488670  0.21684608  0.22641114    -0.54400
C858        C  0.71468399  0.20753813  0.21440452     0.09600
C859        C  0.65104710  0.20813838  0.15452532    -0.53900
C860        C  0.69061493  0.19890344  0.14262089     0.10100
H861        H  0.62891973  0.12857827  0.21549282     0.14700
H862        H  0.74934807  0.17003780  0.16786692     0.00400
H863        H  0.66784125  0.23920274  0.25060559     0.15000
H864        H  0.62927159  0.22382631  0.13365717     0.14800
C865        C  0.79166946  0.39077340  0.04738737     0.86500
C866        C  0.78789184  0.40267696  0.09357016    -0.53700
C867        C  0.79859417  0.44253920  0.10232703     0.09500
C868        C  0.81412733  0.46603400  0.06359107     0.20400
C869        C  0.76618150  0.42310246  0.02349633    -0.54400
C870        C  0.77791809  0.46228442  0.03216587     0.09600
C871        C  0.83736784  0.40000327  0.03653725    -0.53900
C872        C  0.84901361  0.43936812  0.04422735     0.10100
H873        H  0.77464720  0.38210807  0.11659705     0.14700
H874        H  0.82291834  0.99703794  0.06963994     0.00400
H875        H  0.73988060  0.41576859  0.00302135     0.15000
H876        H  0.85816021  0.37809279  0.02183235     0.14800
C877        C  0.95225547  0.14221399  0.04690904     0.86500
C878        C  0.90633664  0.15091986  0.03489492    -0.53700
C879        C  0.89427707  0.19022340  0.04111828     0.09500
C880        C  0.92854695  0.21752697  0.05997090     0.20400
C881        C  0.97739890  0.17412068  0.02253713    -0.54400
C882        C  0.96474398  0.21342153  0.02947663     0.09600
C883        C  0.95593665  0.15529090  0.09290830    -0.53900
C884        C  0.94369843  0.19488556  0.09964986     0.10100
H885        H  0.88525611  0.12847065  0.02123641     0.14700
H886        H  0.91865942  0.24965497  0.06553680     0.00400
H887        H  0.00108788  0.16618286  0.99973691     0.15000
H888        H  0.96938904  0.13604334  0.11735169     0.14800
C889        C  0.64042297  0.04642139  0.44957723     0.86500
C890        C  0.64933499  0.03633011  0.40321786    -0.53700
C891        C  0.68937218  0.04372924  0.39149531     0.09500
C892        C  0.71676543  0.06216807  0.42684185     0.20400
C893        C  0.67381841  0.02296696  0.47451265    -0.54400
C894        C  0.71367326  0.03103284  0.46243399     0.09600
C895        C  0.65227276  0.09149071  0.45461163    -0.53900
C896        C  0.69243875  0.09987650  0.44316187     0.10100
H897        H  0.62680206  0.02217889  0.38205596     0.14700
H898        H  0.74937442  0.06872016  0.41745653     0.00400
H899        H  0.66640091  0.00020781  0.49810586     0.15000
H900        H  0.63181418  0.11411596  0.46866257     0.14800
C901        C  0.54005358  0.39359050  0.19615174     0.86500
C902        C  0.58618414  0.40164477  0.20604170    -0.53700
C903        C  0.59804745  0.44111262  0.19866172     0.09500
C904        C  0.56302304  0.46840370  0.18031534     0.20400
C905        C  0.51615550  0.42621066  0.22080233    -0.54400
C906        C  0.52838901  0.46521695  0.21285128     0.09600
C907        C  0.53403955  0.40575079  0.15048157    -0.53900
C908        C  0.54538965  0.44515686  0.14179439     0.10100
H909        H  0.60682769  0.37896364  0.22012212     0.14700
H910        H  0.57184859  0.99989902  0.17372713     0.00400
H911        H  0.98892822  0.41848763  0.24031699     0.15000
H912        H  0.51982887  0.38536819  0.12749498     0.14800
O913        O  0.92194789  0.43290562  0.03200308    -0.78400
C914        C  0.52978598  0.39313015  0.45417786     0.82600
O915        O  0.54553955  0.49935691  0.09034432    -0.79500
O916        O  0.57408869  0.01525810  0.43791123    -0.81000
O917        O  0.92814466  0.03920506  0.42438865    -0.80800
O918        O  0.89028713  0.49106635  0.01360646    -0.79500
Zn919      Zn  0.98389902  0.44245865  0.02134840     1.55700
O920        O  0.98230373  0.01110054  0.39139417    -0.80800
Cd921      Cd  0.93894271  0.02283539  0.48688970     1.59700
Cd922      Cd  0.53060266  0.03020119  0.03406754     1.59600
O923        O  0.93930695  0.07699959  0.01717362    -0.80800
O924        O  0.99357325  0.49425128  0.49668909    -1.92900
Cd925      Cd  0.51823327  0.48604263  0.43914376     1.59900
O926        O  0.50170680  0.08664058  0.04703435    -0.80800
O927        O  0.53270705  0.42420220  0.43005127    -0.79500
C928        C  0.53398919  0.46347098  0.10083122     0.83100
C929        C  0.88933164  0.45539256  0.02947806     0.82700
O930        O  0.51180474  0.39549525  0.48953392    -0.78400
C931        C  0.94905938  0.03274477  0.39118699     0.83600
O932        O  0.51119450  0.44180868  0.07683578    -0.78500
C933        C  0.96548418  0.09905133  0.03689201     0.83700
C934        C  0.59724342  0.03482798  0.46364907     0.84000
O935        O  0.58589806  0.04297417  0.00218490    -0.80900
O936        O  0.64164437  0.49125183  0.23074363    -0.78400
C937        C  0.70538924  0.02944388  0.35063571     0.82600
O938        O  0.74483200  0.08731110  0.19085745    -0.79500
O939        O  0.83204082  0.01285382  0.29977037    -0.81000
O940        O  0.75359467  0.39743661  0.25483561    -0.80800
O941        O  0.67088713  0.43434837  0.20673707    -0.79500
Zn942      Zn  0.68966182  0.02275257  0.25552415     1.55700
O943        O  0.78476414  0.42390736  0.31119141    -0.80800
Cd944      Cd  0.73238984  0.44498345  0.22016824     1.59700
Cd945      Cd  0.77841983  0.03236322  0.20628181     1.59600
O946        O  0.76309852  0.43987743  0.16580126    -0.80800
O947        O  0.74414768  0.49861265  0.24609006    -1.91300
Cd948      Cd  0.77416931  0.48666691  0.30076412     1.59900
O949        O  0.79382367  0.99723199  0.15125961    -0.80800
O950        O  0.74161732  0.01316852  0.34922600    -0.79500
C951        C  0.70884601  0.09925798  0.20340500     0.83100
C952        C  0.63901903  0.45663439  0.21247987     0.82700
O953        O  0.68206267  0.03277145  0.31801960    -0.78400
C954        C  0.77435624  0.39318110  0.28867827     0.83600
O955        O  0.68703955  0.07709917  0.22750976    -0.78500
C956        C  0.78573049  0.46178847  0.14252060     0.83700
C957        C  0.84995116  0.03759696  0.27509711     0.84000
O958        O  0.83350459  0.04863984  0.23991294    -0.80900
O959        O  0.84933131  0.24012430  0.01170176    -0.78400
C960        C  0.78785000  0.27762691  0.39184484     0.82600
O961        O  0.74067625  0.33567131  0.04618923    -0.79500
O962        O  0.66510181  0.26420080  0.43588676    -0.81000
O963        O  0.73267775  0.14122182  0.48909784    -0.80800
O964        O  0.82164293  0.18129726  0.03282010    -0.79500
Zn965      Zn  0.80005280  0.27080434  0.48663990     1.55700
O966        O  0.70481393  0.17060253  0.43202415    -0.80800
Cd967      Cd  0.75863296  0.19060295  0.02391386     1.59700
Cd968      Cd  0.70978830  0.28010034  0.03161979     1.59600
O969        O  0.73228233  0.18872279  0.08268640    -0.80800
O970        O  0.74697788  0.24353478  0.49539288    -1.91300
Cd971      Cd  0.72020849  0.23213612  0.43979875     1.59900
O972        O  0.69513097  0.24668327  0.08617755    -0.80800
O973        O  0.75589220  0.25450967  0.39108700    -0.79500
C974        C  0.77740194  0.34787224  0.03679877     0.83100
C975        C  0.85283217  0.20481087  0.02805173     0.82700
O976        O  0.80764183  0.28578061  0.42567489    -0.78400
C977        C  0.71190036  0.13920853  0.45473991     0.83600
O978        O  0.80220222  0.32542267  0.01623944    -0.78500
C979        C  0.70703997  0.21228415  0.10162401     0.83700
C980        C  0.64242132  0.28636141  0.45946542     0.84000
O981        O  0.65414732  0.29523365  0.99832271    -0.80900
O982        O  0.50341931  0.34629748  0.23855621    -0.78400
C983        C  0.88784322  0.28887462  0.27806605     0.82600
O984        O  0.54185915  0.24459289  0.33646362    -0.79500
O985        O  0.93560061  0.16868888  0.26434587    -0.81000
O986        O  0.98656531  0.23686866  0.14102934    -0.80800
O987        O  0.53557756  0.32117051  0.18277784    -0.79500
Zn988      Zn  0.98156103  0.30037484  0.27197473     1.55700
O989        O  0.93120290  0.20807776  0.17124401    -0.80800
Cd990      Cd  0.51996086  0.26015325  0.19001463     1.59700
Cd991      Cd  0.52837772  0.21361707  0.28097292     1.59600
O992        O  0.57562983  0.22972894  0.18824267    -0.80800
O993        O  0.99300499  0.24907390  0.24505709    -1.91300
Cd994      Cd  0.93819644  0.22277147  0.23411648     1.59900
O995        O  0.58471703  0.19961715  0.25043557    -0.80800
O996        O  0.88872837  0.25495526  0.25859792    -0.79500
C997        C  0.53198116  0.28066670  0.34810445     0.83100
C998        C  0.52552410  0.35115620  0.20610546     0.82700
O999        O  0.92059218  0.31011119  0.28398724    -0.78400
C1000       C  0.95354321  0.21536243  0.13927855     0.83600
O1001       O  0.50969887  0.30404845  0.32537953    -0.78500
C1002       C  0.59759126  0.20853355  0.21365311     0.83700
C1003       C  0.96042229  0.14701791  0.28622917     0.84000
O1004       O  0.99741783  0.15891797  0.29561380    -0.80900
C1005       C  0.75303368  0.49722519  0.01786302    -0.16400
C1006       C  0.74941057  0.00692295  0.47782788    -0.31500
H1007       H  0.73415090  0.51316786  0.04086126     0.12700
H1008       H  0.77071948  0.99390984  0.45506078     0.13200
C1009       C  0.51759038  0.26046393  0.50158979    -0.16400
C1010       C  0.97789547  0.24728857  0.00277244    -0.31500
H1011       H  0.54018059  0.25123261  0.52547143     0.12700
H1012       H  0.95498139  0.25943745  0.98062597     0.13200
C1013       C  0.98519458  0.99831374  0.26607262    -0.16400
C1014       C  0.50910272  0.50134652  0.23207635    -0.31500
H1015       H  0.98029932  0.96945347  0.28183834     0.12700
H1016       H  0.51401882  0.53033034  0.21648137     0.13200
C1017       C  0.75241871  0.24308495  0.27065227    -0.16400
C1018       C  0.75102051  0.23044659  0.23068154    -0.31500
H1019       H  0.73005121  0.23172137  0.29319038     0.12700
H1020       H  0.77423492  0.24087540  0.20852873     0.13200
C1021       C  0.78885565  0.35006259  0.79995412     0.86500
C1022       C  0.83406743  0.34254916  0.78695352    -0.53700
C1023       C  0.84730946  0.30343120  0.79359808     0.09500
C1024       C  0.81468514  0.27555802  0.81431085     0.20400
C1025       C  0.76343347  0.31654538  0.77705860    -0.54400
C1026       C  0.77705798  0.27786332  0.78476775     0.09600
C1027       C  0.78727962  0.33786496  0.84637969    -0.53900
C1028       C  0.80057445  0.29864922  0.85387280     0.10100
H1029       H  0.85304696  0.36541362  0.77152241     0.14700
H1030       H  0.82556805  0.24381967  0.82047952     0.00400
H1031       H  0.73569148  0.32252344  0.75806871     0.15000
H1032       H  0.77341819  0.35703706  0.87040516     0.14800
C1033       C  0.94552000  0.10476677  0.79736712     0.86500
C1034       C  0.94633663  0.09305653  0.84415537    -0.53700
C1035       C  0.93548168  0.05316090  0.85145081     0.09500
C1036       C  0.92364476  0.02948760  0.81127715     0.20400
C1037       C  0.97347583  0.07333637  0.77618156    -0.54400
C1038       C  0.96192707  0.03393942  0.78313136     0.09600
C1039       C  0.90112187  0.09450599  0.78165769    -0.53900
C1040       C  0.88970785  0.05521226  0.78873815     0.10100
H1041       H  0.95858146  0.11305197  0.86857239     0.14700
H1042       H  0.91557398  0.49765877  0.81845915     0.00400
H1043       H  0.00032175  0.08201666  0.75775181     0.15000
H1044       H  0.88039540  0.11616275  0.76607072     0.14800
C1045       C  0.54568222  0.29555921  0.89151687     0.86500
C1046       C  0.59191359  0.29050890  0.90198649    -0.53700
C1047       C  0.60264730  0.30106717  0.94239602     0.09500
C1048       C  0.56527018  0.31813876  0.96786623     0.20400
C1049       C  0.52296385  0.27187828  0.92549686    -0.54400
C1050       C  0.53312286  0.28345283  0.96545998     0.09600
C1051       C  0.53607653  0.34058296  0.90044488    -0.53900
C1052       C  0.54528786  0.35261241  0.94039745     0.10100
H1053       H  0.61352552  0.27651939  0.88013920     0.14700
H1054       H  0.57280291  0.32764250  0.49956122     0.00400
H1055       H  0.00087260  0.24620521  0.91848127     0.15000
H1056       H  0.52069260  0.36073063  0.87797965     0.14800
C1057       C  0.64047877  0.19766191  0.69984243     0.86500
C1058       C  0.65033657  0.15202229  0.70263612    -0.53700
C1059       C  0.69045870  0.14180360  0.69178082     0.09500
C1060       C  0.71634934  0.17891523  0.67702559     0.20400
C1061       C  0.67447251  0.21831653  0.72626744    -0.54400
C1062       C  0.71420363  0.20892863  0.71419047     0.09600
C1063       C  0.65053488  0.20967644  0.65433638    -0.53900
C1064       C  0.69004742  0.20017525  0.64234424     0.10100
H1065       H  0.62826236  0.13019199  0.71520285     0.14700
H1066       H  0.74876227  0.17136076  0.66761108     0.00400
H1067       H  0.66757844  0.24053859  0.75064382     0.15000
H1068       H  0.62868425  0.22521963  0.63343381     0.14800
C1069       C  0.79117379  0.38933147  0.54682590     0.86500
C1070       C  0.78705463  0.40107964  0.59306194    -0.53700
C1071       C  0.79772935  0.44089629  0.60206332     0.09500
C1072       C  0.81367217  0.46444714  0.56345444     0.20400
C1073       C  0.76588890  0.42180115  0.52289705    -0.54400
C1074       C  0.77760229  0.46092739  0.53177787     0.09600
C1075       C  0.83695968  0.39842982  0.53632498    -0.53900
C1076       C  0.84868086  0.43771276  0.54420670     0.10100
H1077       H  0.77356151  0.38047317  0.61590296     0.14700
H1078       H  0.82356207  0.99856353  0.57019729     0.00400
H1079       H  0.73951164  0.41459249  0.50247182     0.15000
H1080       H  0.85775568  0.37650893  0.52163759     0.14800
C1081       C  0.95208695  0.14223506  0.54671330     0.86500
C1082       C  0.90608376  0.15066176  0.53483943    -0.53700
C1083       C  0.89380623  0.18990117  0.54103264     0.09500
C1084       C  0.92804321  0.21743404  0.55975817     0.20400
C1085       C  0.97695684  0.17419548  0.52220487    -0.54400
C1086       C  0.96412874  0.21343021  0.52908783     0.09600
C1087       C  0.95588869  0.15534398  0.59266216    -0.53900
C1088       C  0.94358607  0.19489866  0.59942406     0.10100
H1089       H  0.88513106  0.12809468  0.52118485     0.14700
H1090       H  0.91802538  0.24952307  0.56530517     0.00400
H1091       H  0.00062867  0.16632967  0.49935962     0.15000
H1092       H  0.96948443  0.13614030  0.61706607     0.14800
C1093       C  0.64008567  0.04795372  0.95027481     0.86500
C1094       C  0.64880597  0.03825368  0.90381904    -0.53700
C1095       C  0.68875173  0.04577907  0.89198843     0.09500
C1096       C  0.71636519  0.06381159  0.92741165     0.20400
C1097       C  0.67355350  0.02432386  0.97492216    -0.54400
C1098       C  0.71341481  0.03245524  0.96289086     0.09600
C1099       C  0.65200213  0.09301397  0.95561924    -0.53900
C1100       C  0.69215237  0.10142119  0.94402852     0.10100
H1101       H  0.62619156  0.02429092  0.88261116     0.14700
H1102       H  0.74893560  0.07041254  0.91792738     0.00400
H1103       H  0.66610559  0.00144451  0.99837599     0.15000
H1104       H  0.63161834  0.11557976  0.96987174     0.14800
C1105       C  0.53816769  0.39363373  0.69554565     0.86500
C1106       C  0.58420915  0.40157457  0.70582511    -0.53700
C1107       C  0.59633451  0.44089336  0.69832911     0.09500
C1108       C  0.56152643  0.46827432  0.67960239     0.20400
C1109       C  0.51405919  0.42638335  0.71975008    -0.54400
C1110       C  0.52653534  0.46532239  0.71183567     0.09600
C1111       C  0.53261790  0.40557249  0.64972787    -0.53900
C1112       C  0.54419108  0.44492618  0.64098239     0.10100
H1113       H  0.60465616  0.37886286  0.72015113     0.14700
H1114       H  0.57094607  0.00058532  0.67283977     0.00400
H1115       H  0.98996083  0.41865299  0.74179328     0.15000
H1116       H  0.51857895  0.38512974  0.62669340     0.14800
O1117       O  0.92172142  0.43110253  0.53164994    -0.78400
C1118       C  0.52999291  0.39278754  0.95549380     0.82600
O1119       O  0.54484909  0.49909026  0.58949484    -0.79500
O1120       O  0.57387513  0.01646183  0.93854098    -0.81000
O1121       O  0.92775245  0.03965707  0.92441371    -0.80800
O1122       O  0.89012875  0.48952876  0.51412952    -0.79500
Zn1123     Zn  0.98393092  0.44130594  0.52161717     1.55700
O1124       O  0.98060047  0.01004108  0.89072105    -0.80800
Cd1125     Cd  0.93843668  0.02282282  0.98684851     1.59700
Cd1126     Cd  0.53063954  0.02999706  0.53322154     1.59600
O1127       O  0.93968980  0.07711206  0.51676031    -0.80800
O1128       O  0.99366386  0.49533580  0.99626179    -1.92900
Cd1129     Cd  0.51803189  0.48544713  0.94030619     1.59900
O1130       O  0.50211475  0.08640015  0.54660402    -0.80800
O1131       O  0.53265300  0.42382047  0.93134636    -0.79500
C1132       C  0.53327457  0.46318155  0.59984492     0.83100
C1133       C  0.88910759  0.45368639  0.52952863     0.82700
O1134       O  0.51221814  0.39512585  0.99097228    -0.78400
C1135       C  0.94794934  0.03249145  0.89090878     0.83600
O1136       O  0.51074565  0.44153662  0.57560594    -0.78500
C1137       C  0.96560461  0.09921323  0.53673736     0.83700
C1138       C  0.59699046  0.03600137  0.96436784     0.84000
O1139       O  0.58602351  0.04231179  0.50132909    -0.80900
O1140       O  0.64021026  0.49072886  0.73036787    -0.78400
C1141       C  0.70451347  0.03178469  0.85096182     0.82600
O1142       O  0.74426631  0.08937751  0.69108528    -0.79500
O1143       O  0.83051439  0.01488414  0.80014248    -0.81000
O1144       O  0.75215923  0.39645006  0.75571411    -0.80800
O1145       O  0.66920012  0.43354336  0.70674101    -0.79500
Zn1146     Zn  0.68834459  0.02494931  0.75570051     1.55700
O1147       O  0.78486341  0.42354557  0.81091811    -0.80800
Cd1148     Cd  0.73102724  0.44370290  0.72020820     1.59700
Cd1149     Cd  0.77761818  0.03474274  0.70664739     1.59600
O1150       O  0.76204595  0.43810750  0.66568981    -0.80800
O1151       O  0.74292109  0.49755339  0.74583446    -1.91300
Cd1152     Cd  0.77332325  0.48614425  0.80049794     1.59900
O1153       O  0.79381448  0.00004097  0.65182402    -0.80800
O1154       O  0.74055639  0.01516893  0.84951077    -0.79500
C1155       C  0.70806137  0.10101607  0.70318658     0.83100
C1156       C  0.63742722  0.45609732  0.71222400     0.82700
O1157       O  0.68115054  0.03546270  0.81835776    -0.78400
C1158       C  0.77379620  0.39256802  0.78909830     0.83600
O1159       O  0.68602899  0.07881381  0.72704019    -0.78500
C1160       C  0.78456002  0.46011030  0.64229602     0.83700
C1161       C  0.84870811  0.03922465  0.77535683     0.84000
O1162       O  0.83249611  0.05048805  0.74018445    -0.80900
O1163       O  0.84876423  0.23910435  0.51042013    -0.78400
C1164       C  0.78921530  0.27791186  0.89291574     0.82600
O1165       O  0.73994438  0.33462460  0.54484734    -0.79500
O1166       O  0.66659378  0.26576467  0.93657711    -0.81000
O1167       O  0.73278672  0.14242346  0.98981564    -0.80800
O1168       O  0.82106828  0.18085424  0.53307340    -0.79500
Zn1169     Zn  0.80084236  0.27198980  0.98777570     1.55700
O1170       O  0.70509288  0.17204564  0.93287344    -0.80800
Cd1171     Cd  0.75794841  0.18972371  0.52342962     1.59700
Cd1172     Cd  0.70902314  0.27931703  0.53023783     1.59600
O1173       O  0.73127996  0.18860826  0.58225454    -0.80800
O1174       O  0.74781352  0.24467466  0.99649387    -1.91300
Cd1175     Cd  0.72130985  0.23327159  0.94084832     1.59900
O1176       O  0.69443479  0.24679310  0.58508240    -0.80800
O1177       O  0.75744753  0.25460304  0.89224662    -0.79500
C1178       C  0.77683664  0.34657040  0.53591465     0.83100
C1179       C  0.85229017  0.20421387  0.52768827     0.82700
O1180       O  0.80875662  0.28661077  0.92674928    -0.78400
C1181       C  0.71186111  0.14060883  0.95557706     0.83600
O1182       O  0.80168338  0.32403079  0.51551255    -0.78500
C1183       C  0.70627216  0.21261969  0.60098728     0.83700
C1184       C  0.64353196  0.28733963  0.96032512     0.84000
O1185       O  0.65340054  0.29470743  0.49723106    -0.80900
O1186       O  0.50281397  0.34644744  0.73910052    -0.78400
C1187       C  0.88730335  0.28845058  0.77766516     0.82600
O1188       O  0.54237573  0.24465741  0.83698249    -0.79500
O1189       O  0.93513852  0.16868454  0.76412945    -0.81000
O1190       O  0.98681938  0.23643876  0.64115486    -0.80800
O1191       O  0.53335762  0.32133138  0.68239180    -0.79500
Zn1192     Zn  0.98077225  0.30025680  0.77142021     1.55700
O1193       O  0.93090582  0.20813322  0.67092943    -0.80800
Cd1194     Cd  0.51906097  0.26037767  0.69076370     1.59700
Cd1195     Cd  0.52812148  0.21368372  0.78144769     1.59600
O1196       O  0.57509672  0.23105158  0.68851213    -0.80800
O1197       O  0.99244466  0.24887609  0.74494829    -1.91300
Cd1198     Cd  0.93772415  0.22262737  0.73378898     1.59900
O1199       O  0.58432200  0.20029148  0.75033755    -0.80800
O1200       O  0.88814424  0.25456661  0.75815932    -0.79500
C1201       C  0.53285702  0.28082245  0.84871803     0.83100
C1202       C  0.52380755  0.35130439  0.70589709     0.82700
O1203       O  0.91999869  0.30973501  0.78349505    -0.78400
C1204       C  0.95351599  0.21528103  0.63912654     0.83600
O1205       O  0.51043171  0.30427367  0.82620173    -0.78500
C1206       C  0.59716365  0.20977018  0.71368417     0.83700
C1207       C  0.95960523  0.14713382  0.78653323     0.84000
O1208       O  0.99640113  0.15900849  0.79642812    -0.80900
C1209       C  0.75195703  0.49577954  0.51850229    -0.16400
C1210       C  0.74934904  0.00849093  0.97842409    -0.31500
H1211       H  0.73098511  0.50904548  0.54142707     0.12700
H1212       H  0.77205532  0.99756089  0.95589371     0.13200
C1213       C  0.51765740  0.26070817  0.00198453    -0.16400
C1214       C  0.97720160  0.24715036  0.50216900    -0.31500
H1215       H  0.53944910  0.25208889  0.02683667     0.12700
H1216       H  0.95484657  0.25802541  0.47879117     0.13200
C1217       C  0.98354896  0.99841097  0.76546441    -0.16400
C1218       C  0.50753124  0.50152669  0.73129088    -0.31500
H1219       H  0.97789132  0.96945302  0.78074699     0.12700
H1220       H  0.51241451  0.53057500  0.71580438     0.13200
C1221       C  0.75277101  0.24219822  0.77129889    -0.16400
C1222       C  0.75056121  0.23153472  0.73074893    -0.31500
H1223       H  0.73130315  0.22918019  0.79378915     0.12700
H1224       H  0.77283771  0.24367185  0.70853413     0.13200
C1225       C  0.78879458  0.85002851  0.29951001     0.86500
C1226       C  0.83414065  0.84249221  0.28704788    -0.53700
C1227       C  0.84734441  0.80342643  0.29400323     0.09500
C1228       C  0.81450584  0.77565184  0.31460571     0.20400
C1229       C  0.76365774  0.81638994  0.27647485    -0.54400
C1230       C  0.77724101  0.77775547  0.28458615     0.09600
C1231       C  0.78662654  0.83809066  0.34597897    -0.53900
C1232       C  0.79980639  0.79893263  0.35390110     0.10100
H1233       H  0.85318856  0.86524748  0.27152638     0.14700
H1234       H  0.82533680  0.74395477  0.32107152     0.00400
H1235       H  0.73612244  0.82225735  0.25714296     0.15000
H1236       H  0.77252671  0.85743408  0.36971512     0.14800
C1237       C  0.94635053  0.60459413  0.29890223     0.86500
C1238       C  0.94754912  0.59288548  0.34571403    -0.53700
C1239       C  0.93696439  0.55289664  0.35304233     0.09500
C1240       C  0.92510040  0.52910777  0.31297976     0.20400
C1241       C  0.97439547  0.57331024  0.27759028    -0.54400
C1242       C  0.96313287  0.53385339  0.28463365     0.09600
C1243       C  0.90189612  0.59390292  0.28348696    -0.53900
C1244       C  0.89086283  0.55445152  0.29054062     0.10100
H1245       H  0.95971971  0.61297138  0.37008866     0.14700
H1246       H  0.91615041  0.99685672  0.31754066     0.00400
H1247       H  0.00102610  0.58208123  0.25888132     0.15000
H1248       H  0.88095777  0.61533887  0.26786774     0.14800
C1249       C  0.54575404  0.79471187  0.39132764     0.86500
C1250       C  0.59185014  0.78930521  0.40233991    -0.53700
C1251       C  0.60232030  0.80018278  0.44275456     0.09500
C1252       C  0.56485095  0.81802401  0.46757096     0.20400
C1253       C  0.52247898  0.77164541  0.42538662    -0.54400
C1254       C  0.53238243  0.78361372  0.46530108     0.09600
C1255       C  0.53652009  0.83996676  0.39961558    -0.53900
C1256       C  0.54541038  0.85241281  0.43950405     0.10100
H1257       H  0.61352751  0.77487130  0.38086276     0.14700
H1258       H  0.57326864  0.82793823  0.00001299     0.00400
H1259       H  0.00099097  0.74647486  0.41771230     0.15000
H1260       H  0.52145911  0.85995562  0.37678605     0.14800
C1261       C  0.64185678  0.69635547  0.19943503     0.86500
C1262       C  0.65199898  0.65072315  0.20210160    -0.53700
C1263       C  0.69224510  0.64069494  0.19135453     0.09500
C1264       C  0.71792388  0.67803959  0.17664322     0.20400
C1265       C  0.67572844  0.71702639  0.22597180    -0.54400
C1266       C  0.71555720  0.70786214  0.21397794     0.09600
C1267       C  0.65196968  0.70859356  0.15398102    -0.53900
C1268       C  0.69156976  0.69942376  0.14193811     0.10100
H1269       H  0.63005306  0.62878350  0.21468923     0.14700
H1270       H  0.75039287  0.67068374  0.16726430     0.00400
H1271       H  0.66862235  0.73907498  0.25044521     0.15000
H1272       H  0.63004964  0.72412503  0.13314660     0.14800
C1273       C  0.79156651  0.88991732  0.04516367     0.86500
C1274       C  0.78758015  0.90124599  0.09163483    -0.53700
C1275       C  0.79812809  0.94106492  0.10100906     0.09500
C1276       C  0.81380617  0.96499846  0.06257819     0.20400
C1277       C  0.76601897  0.92258222  0.02177645    -0.54400
C1278       C  0.77760252  0.96167037  0.03105634     0.09600
C1279       C  0.83720295  0.89931244  0.03462847    -0.53900
C1280       C  0.84878722  0.93853450  0.04295683     0.10100
H1281       H  0.77421836  0.88041323  0.11433340     0.14700
H1282       H  0.82325437  0.49815603  0.07021959     0.00400
H1283       H  0.73954371  0.91549596  0.00143765     0.15000
H1284       H  0.85803582  0.87760063  0.01967277     0.14800
C1285       C  0.95250457  0.64316339  0.04645320     0.86500
C1286       C  0.90724530  0.65218586  0.03218276    -0.53700
C1287       C  0.89497787  0.69149904  0.03799667     0.09500
C1288       C  0.92849209  0.71854039  0.05871178     0.20400
C1289       C  0.97897861  0.67507627  0.02353421    -0.54400
C1290       C  0.96611280  0.71443435  0.02989136     0.09600
C1291       C  0.95393999  0.65595892  0.09258658    -0.53900
C1292       C  0.94167595  0.69557506  0.09904017     0.10100
H1293       H  0.88662949  0.62982240  0.01767051     0.14700
H1294       H  0.91845052  0.75066211  0.06400723     0.00400
H1295       H  0.00346067  0.66706274  0.00162286     0.15000
H1296       H  0.96642615  0.63658078  0.11743156     0.14800
C1297       C  0.64070513  0.54705754  0.44950447     0.86500
C1298       C  0.64982488  0.53804125  0.40303061    -0.53700
C1299       C  0.68995403  0.54553040  0.39172963     0.09500
C1300       C  0.71727357  0.56308188  0.42772304     0.20400
C1301       C  0.67384662  0.52288725  0.47405801    -0.54400
C1302       C  0.71384724  0.53109916  0.46256622     0.09600
C1303       C  0.65269600  0.59195285  0.45580815    -0.53900
C1304       C  0.69296722  0.60052473  0.44490491     0.10100
H1305       H  0.62739133  0.52426394  0.38149573     0.14700
H1306       H  0.74996445  0.56971895  0.41869222     0.00400
H1307       H  0.66613560  0.49966164  0.49706599     0.15000
H1308       H  0.63213725  0.61433755  0.47010753     0.14800
C1309       C  0.53878675  0.89346514  0.19683345     0.86500
C1310       C  0.58505166  0.90127317  0.20618265    -0.53700
C1311       C  0.59709521  0.94060188  0.19854164     0.09500
C1312       C  0.56202361  0.96807681  0.18057206     0.20400
C1313       C  0.51533028  0.92620737  0.22171078    -0.54400
C1314       C  0.52769323  0.96515290  0.21350443     0.09600
C1315       C  0.53229632  0.90559273  0.15116437    -0.53900
C1316       C  0.54388180  0.94489056  0.14224997     0.10100
H1317       H  0.60569715  0.87851815  0.22013938     0.14700
H1318       H  0.57271326  0.50029805  0.17362020     0.00400
H1319       H  0.99050456  0.91824304  0.24081244     0.15000
H1320       H  0.51780628  0.88523599  0.12833160     0.14800
O1321       O  0.92168902  0.93202530  0.03047824    -0.78400
C1322       C  0.52980064  0.89272622  0.45423253     0.82600
O1323       O  0.54455620  0.99900185  0.09066985    -0.79500
O1324       O  0.57409539  0.51646019  0.43689427    -0.81000
O1325       O  0.92849000  0.53868147  0.42571799    -0.80800
O1326       O  0.89002488  0.99050556  0.01304239    -0.79500
Zn1327     Zn  0.98374706  0.94177878  0.02032771     1.55700
O1328       O  0.98227755  0.51017093  0.39248499    -0.80800
Cd1329     Cd  0.93872593  0.52186576  0.48811833     1.59700
Cd1330     Cd  0.53134689  0.53005357  0.03361912     1.59600
O1331       O  0.94000825  0.57768901  0.01716331    -0.80800
O1332       O  0.99375744  0.99514456  0.49559262    -1.92900
Cd1333     Cd  0.51801034  0.98560174  0.43971220     1.59900
O1334       O  0.50323062  0.58696763  0.04604221    -0.80800
O1335       O  0.53216998  0.92371422  0.42992705    -0.79500
C1336       C  0.53281413  0.96315205  0.10112325     0.83100
C1337       C  0.88910417  0.95464191  0.02840764     0.82700
O1338       O  0.51215997  0.89519529  0.48978015    -0.78400
C1339       C  0.94931778  0.53218868  0.39247712     0.83600
O1340       O  0.51011997  0.94154857  0.07697017    -0.78500
C1341       C  0.96592217  0.59986859  0.03706393     0.83700
C1342       C  0.59744224  0.53527791  0.46310249     0.84000
O1343       O  0.58644734  0.54168224  0.00148367    -0.80900
O1344       O  0.64107180  0.99039783  0.23043463    -0.78400
C1345       C  0.70606674  0.53120744  0.35091946     0.82600
O1346       O  0.74639097  0.58831531  0.19136079    -0.79500
O1347       O  0.83226176  0.51273996  0.30089642    -0.81000
O1348       O  0.75254123  0.89636414  0.25489428    -0.80800
O1349       O  0.67004538  0.93349385  0.20604411    -0.79500
Zn1350     Zn  0.69028667  0.52386680  0.25575167     1.55700
O1351       O  0.78507582  0.92347658  0.31020576    -0.80800
Cd1352     Cd  0.73181319  0.94370020  0.21942069     1.59700
Cd1353     Cd  0.77940272  0.53341556  0.20738134     1.59600
O1354       O  0.76287947  0.93784299  0.16492060    -0.80800
O1355       O  0.74359532  0.99753785  0.24534543    -1.91300
Cd1356     Cd  0.77406847  0.98613991  0.29994762     1.59900
O1357       O  0.79516991  0.49871654  0.15246370    -0.80800
O1358       O  0.74201661  0.51434776  0.34975841    -0.79500
C1359       C  0.71009294  0.59998200  0.20316204     0.83100
C1360       C  0.63826068  0.95588096  0.21204142     0.82700
O1361       O  0.68289692  0.53469923  0.31818160    -0.78400
C1362       C  0.77397344  0.89250390  0.28839532     0.83600
O1363       O  0.68804824  0.57776412  0.22697724    -0.78500
C1364       C  0.78504488  0.96007061  0.14142747     0.83700
C1365       C  0.85020817  0.53781071  0.27664414     0.84000
O1366       O  0.83397535  0.54934198  0.24155871    -0.80900
O1367       O  0.84963034  0.74005769  0.00585850    -0.78400
C1368       C  0.78831795  0.77845625  0.39317854     0.82600
O1369       O  0.74127587  0.83440985  0.04422075    -0.79500
O1370       O  0.66605174  0.76432521  0.43781596    -0.81000
O1371       O  0.73092051  0.64242779  0.49255889    -0.80800
O1372       O  0.82230566  0.68256863  0.03114159    -0.79500
Zn1373     Zn  0.80033624  0.77213303  0.48812012     1.55700
O1374       O  0.70697642  0.67094432  0.43332017    -0.80800
Cd1375     Cd  0.75907164  0.69033569  0.02230867     1.59700
Cd1376     Cd  0.70994685  0.77935794  0.02957315     1.59600
O1377       O  0.73303794  0.68876799  0.08161645    -0.80800
O1378       O  0.74739880  0.74465386  0.49770509    -1.91300
Cd1379     Cd  0.72133545  0.73269355  0.44175516     1.59900
O1380       O  0.69546591  0.74642939  0.08461127    -0.80800
O1381       O  0.75659672  0.75508180  0.39275671    -0.79500
C1382       C  0.77742354  0.84715135  0.03359496     0.83100
C1383       C  0.85342103  0.70569711  0.02437653     0.82700
O1384       O  0.80794231  0.78715824  0.42696239    -0.78400
C1385       C  0.71221659  0.63991362  0.45702312     0.83600
O1386       O  0.80146499  0.82548007  0.01112375    -0.78500
C1387       C  0.70772993  0.71235152  0.10051342     0.83700
C1388       C  0.64306077  0.78637308  0.46120828     0.84000
O1389       O  0.65426822  0.79554915  0.99692200    -0.80900
O1390       O  0.50277126  0.84598107  0.23967083    -0.78400
C1391       C  0.88727542  0.78832952  0.27791979     0.82600
O1392       O  0.54332947  0.74377963  0.33659235    -0.79500
O1393       O  0.93527517  0.66832339  0.26529696    -0.81000
O1394       O  0.98407933  0.73804407  0.14047624    -0.80800
O1395       O  0.53476027  0.82115982  0.18361204    -0.79500
Zn1396     Zn  0.98079554  0.80025914  0.27110577     1.55700
O1397       O  0.93016098  0.70720315  0.17123156    -0.80800
Cd1398     Cd  0.52046227  0.75998244  0.19073361     1.59700
Cd1399     Cd  0.52902667  0.71270663  0.28100343     1.59600
O1400       O  0.57659343  0.73036563  0.18841531    -0.80800
O1401       O  0.99209042  0.74874182  0.24466068    -1.91300
Cd1402     Cd  0.93741453  0.72202273  0.23419543     1.59900
O1403       O  0.58530056  0.69869600  0.24980879    -0.80800
O1404       O  0.88804565  0.75420772  0.25881971    -0.79500
C1405       C  0.53308657  0.77970948  0.34853109     0.83100
C1406       C  0.52452069  0.85102989  0.20699036     0.82700
O1407       O  0.91996023  0.80979431  0.28317098    -0.78400
C1408       C  0.95153622  0.71580349  0.13890075     0.83600
O1409       O  0.51003609  0.80277341  0.32621115    -0.78500
C1410       C  0.59841320  0.70850318  0.21331695     0.83700
C1411       C  0.96010228  0.64707448  0.28764185     0.84000
O1412       O  0.99701734  0.65920619  0.29685895    -0.80900
C1413       C  0.75159389  0.99651771  0.01850190    -0.16400
C1414       C  0.74945122  0.50674323  0.47813825    -0.31500
H1415       H  0.73005389  0.00869467  0.04151714     0.12700
H1416       H  0.77158609  0.49477401  0.45557999     0.13200
C1417       C  0.51685089  0.76112273  0.50197454    -0.16400
C1418       C  0.97941724  0.74791260  0.00264334    -0.31500
H1419       H  0.53873003  0.75249638  0.52674942     0.12700
H1420       H  0.95645984  0.75995086  0.98048093     0.13200
C1421       C  0.98457641  0.49847467  0.26657626    -0.16400
C1422       C  0.50887752  0.00149692  0.23282751    -0.31500
H1423       H  0.97975798  0.46951607  0.28219004     0.12700
H1424       H  0.51402450  0.03043474  0.21721949     0.13200
C1425       C  0.75302296  0.74199574  0.27132258    -0.16400
C1426       C  0.75185479  0.73028752  0.23102953    -0.31500
H1427       H  0.73068185  0.72992071  0.29349580     0.12700
H1428       H  0.77502431  0.74145741  0.20921241     0.13200
C1429       C  0.78886839  0.85250816  0.79664843     0.86500
C1430       C  0.83574200  0.84547181  0.78994775    -0.53700
C1431       C  0.84762525  0.80543415  0.79416229     0.09500
C1432       C  0.81204323  0.77644032  0.80685596     0.20400
C1433       C  0.76762482  0.82182723  0.76652759    -0.54400
C1434       C  0.78008381  0.78260010  0.77124335     0.09600
C1435       C  0.78035264  0.83615117  0.84062348    -0.53900
C1436       C  0.79264838  0.79643192  0.84635999     0.10100
H1437       H  0.85660823  0.86913423  0.77882984     0.14700
H1438       H  0.82185466  0.74410300  0.81114617     0.00400
H1439       H  0.74564002  0.83027887  0.74177123     0.15000
H1440       H  0.76521998  0.85407257  0.86487692     0.14800
C1441       C  0.94530644  0.60535799  0.79753494     0.86500
C1442       C  0.94705264  0.59387618  0.84440222    -0.53700
C1443       C  0.93659032  0.55394308  0.85212268     0.09500
C1444       C  0.92425689  0.52994942  0.81231486     0.20400
C1445       C  0.97311506  0.57399193  0.77607818    -0.54400
C1446       C  0.96203434  0.53456379  0.78358957     0.09600
C1447       C  0.90068102  0.59456925  0.78259656    -0.53900
C1448       C  0.88970474  0.55511379  0.79003721     0.10100
H1449       H  0.95949071  0.61410489  0.86851578     0.14700
H1450       H  0.91448224  0.99726106  0.81706147     0.00400
H1451       H  0.99963227  0.58270297  0.75718011     0.15000
H1452       H  0.87966824  0.61590896  0.76694198     0.14800
C1453       C  0.54462223  0.79568544  0.89141402     0.86500
C1454       C  0.59096810  0.79093777  0.90139073    -0.53700
C1455       C  0.60203229  0.80143446  0.94170143     0.09500
C1456       C  0.56490316  0.81851682  0.96747508     0.20400
C1457       C  0.52240035  0.77193039  0.92567825    -0.54400
C1458       C  0.53296723  0.78364982  0.96548210     0.09600
C1459       C  0.53481296  0.84066102  0.90029156    -0.53900
C1460       C  0.54446633  0.85286658  0.94008674     0.10100
H1461       H  0.61238764  0.77689224  0.87938252     0.14700
H1462       H  0.57269583  0.82763694  0.50017474     0.00400
H1463       H  0.00207684  0.74666194  0.91779832     0.15000
H1464       H  0.51908540  0.86065550  0.87791987     0.14800
C1465       C  0.64161326  0.69610123  0.70268283     0.86500
C1466       C  0.65048622  0.65001134  0.70113513    -0.53700
C1467       C  0.69115840  0.63998539  0.69166386     0.09500
C1468       C  0.71838048  0.67783502  0.68232748     0.20400
C1469       C  0.67434326  0.71286376  0.73322516    -0.54400
C1470       C  0.71432099  0.70319909  0.72308604     0.09600
C1471       C  0.65440759  0.71227378  0.65945019    -0.53900
C1472       C  0.69413524  0.70291804  0.64825633     0.10100
H1473       H  0.62758909  0.62760556  0.71086110     0.14700
H1474       H  0.75114208  0.67044893  0.67406363     0.00400
H1475       H  0.66660568  0.73091446  0.76077531     0.15000
H1476       H  0.63352128  0.72926340  0.63874708     0.14800
C1477       C  0.79199707  0.89109966  0.54774274     0.86500
C1478       C  0.78771547  0.90333224  0.59382804    -0.53700
C1479       C  0.79835118  0.94326499  0.60241953     0.09500
C1480       C  0.81441552  0.96642060  0.56370276     0.20400
C1481       C  0.76682144  0.92336178  0.52339483    -0.54400
C1482       C  0.77847141  0.96257490  0.53201389     0.09600
C1483       C  0.83779351  0.90012506  0.53735472    -0.53900
C1484       C  0.84941987  0.93951060  0.54482912     0.10100
H1485       H  0.77408697  0.88297830  0.61682380     0.14700
H1486       H  0.82283572  0.49652410  0.57024741     0.00400
H1487       H  0.74053000  0.91597515  0.50292957     0.15000
H1488       H  0.85862935  0.87810006  0.52288795     0.14800
C1489       C  0.95149071  0.64179366  0.54697357     0.86500
C1490       C  0.90575502  0.65047062  0.53417986    -0.53700
C1491       C  0.89371802  0.68985044  0.53998388     0.09500
C1492       C  0.92780133  0.71725757  0.55902678     0.20400
C1493       C  0.97704481  0.67343890  0.52268589    -0.54400
C1494       C  0.96442952  0.71282728  0.52903434     0.09600
C1495       C  0.95445877  0.65522709  0.59290871    -0.53900
C1496       C  0.94219984  0.69489106  0.59916036     0.10100
H1497       H  0.88474592  0.62790976  0.52060451     0.14700
H1498       H  0.91790478  0.74944737  0.56418609     0.00400
H1499       H  0.00090403  0.66521825  0.50016818     0.15000
H1500       H  0.96752026  0.63614734  0.61769967     0.14800
C1501       C  0.64022445  0.54625764  0.94948314     0.86500
C1502       C  0.64873719  0.53713639  0.90289362    -0.53700
C1503       C  0.68878284  0.54438099  0.89120596     0.09500
C1504       C  0.71659230  0.56176226  0.92682358     0.20400
C1505       C  0.67345663  0.52191957  0.97370422    -0.54400
C1506       C  0.71330912  0.52990004  0.96169812     0.09600
C1507       C  0.65251021  0.59107307  0.95553493    -0.53900
C1508       C  0.69270186  0.59930034  0.94414816     0.10100
H1509       H  0.62600641  0.52349631  0.88158374     0.14700
H1510       H  0.74922524  0.56819683  0.91743549     0.00400
H1511       H  0.66595509  0.49880855  0.99691252     0.15000
H1512       H  0.63221257  0.61366841  0.96986898     0.14800
C1513       C  0.53898047  0.89383121  0.69618045     0.86500
C1514       C  0.58519010  0.90216310  0.70550538    -0.53700
C1515       C  0.59675968  0.94167927  0.69792775     0.09500
C1516       C  0.56145511  0.96867889  0.67976364     0.20400
C1517       C  0.51522701  0.92644953  0.72097462    -0.54400
C1518       C  0.52719302  0.96548997  0.71266748     0.09600
C1519       C  0.53234697  0.90581652  0.65049442    -0.53900
C1520       C  0.54358068  0.94519415  0.64150960     0.10100
H1521       H  0.60606390  0.87967479  0.71957056     0.14700
H1522       H  0.57139232  0.50011262  0.67290103     0.00400
H1523       H  0.98945441  0.91833276  0.74025092     0.15000
H1524       H  0.51804623  0.88529684  0.62769647     0.14800
O1525       O  0.92215476  0.93276432  0.53173382    -0.78400
C1526       C  0.52936393  0.89314059  0.95518942     0.82600
O1527       O  0.54423622  0.99909532  0.58985863    -0.79500
O1528       O  0.57367332  0.51571804  0.93772511    -0.81000
O1529       O  0.92852288  0.54011451  0.92499762    -0.80800
O1530       O  0.89048231  0.99099060  0.51370613    -0.79500
Zn1531     Zn  0.98397002  0.94234795  0.52068527     1.55700
O1532       O  0.98213183  0.51139164  0.89175342    -0.80800
Cd1533     Cd  0.93900320  0.52326756  0.98743854     1.59700
Cd1534     Cd  0.53106511  0.52988581  0.53273039     1.59600
O1535       O  0.93891208  0.57616033  0.51812617    -0.80800
O1536       O  0.99298423  0.99466838  0.99529157    -1.92900
Cd1537     Cd  0.51809226  0.98610267  0.94038304     1.59900
O1538       O  0.50280160  0.58653808  0.54549023    -0.80800
O1539       O  0.53227844  0.92425482  0.93113940    -0.79500
C1540       C  0.53255370  0.96325153  0.60032585     0.83100
C1541       C  0.88960875  0.95537439  0.52965248     0.82700
O1542       O  0.51150814  0.89546726  0.99063049    -0.78400
C1543       C  0.94920508  0.53347706  0.89169566     0.83600
O1544       O  0.51007465  0.94147788  0.57612583    -0.78500
C1545       C  0.96495719  0.59858042  0.53754784     0.83700
C1546       C  0.59716089  0.53475846  0.96357735     0.84000
O1547       O  0.58640608  0.54182639  0.50098952    -0.80900
O1548       O  0.63978287  0.99209859  0.73048831    -0.78400
C1549       C  0.70458903  0.52996331  0.85042325     0.82600
O1550       O  0.74471253  0.58708555  0.69123302    -0.79500
O1551       O  0.83095527  0.51352529  0.80113333    -0.81000
O1552       O  0.75295678  0.90099811  0.75453006    -0.80800
O1553       O  0.66966295  0.93575783  0.70596881    -0.79500
Zn1554     Zn  0.68890711  0.52294120  0.75541027     1.55700
O1555       O  0.78531919  0.92581999  0.81078029    -0.80800
Cd1556     Cd  0.73093710  0.94725082  0.71950884     1.59700
Cd1557     Cd  0.77807599  0.53223029  0.70699164     1.59600
O1558       O  0.76204327  0.94122818  0.66549639    -0.80800
O1559       O  0.74250026  0.00038076  0.74575688    -1.91300
Cd1560     Cd  0.77291567  0.98829178  0.80035644     1.59900
O1561       O  0.79369547  0.49716266  0.65213189    -0.80800
O1562       O  0.74048851  0.51303896  0.84926073    -0.79500
C1563       C  0.70846188  0.59895250  0.70306034     0.83100
C1564       C  0.63753823  0.95761006  0.71188817     0.82700
O1565       O  0.68141328  0.53366500  0.81773345    -0.78400
C1566       C  0.77458299  0.89572666  0.78762573     0.83600
O1567       O  0.68628930  0.57688396  0.72686122    -0.78500
C1568       C  0.78479826  0.96294780  0.64219728     0.83700
C1569       C  0.84898845  0.53811067  0.77639933     0.84000
O1570       O  0.83288830  0.54865592  0.74090850    -0.80900
O1571       O  0.84867370  0.73964787  0.51086824    -0.78400
C1572       C  0.78390359  0.77539076  0.88631696     0.82600
O1573       O  0.74071737  0.83635494  0.54596899    -0.79500
O1574       O  0.66457318  0.76388001  0.93593026    -0.81000
O1575       O  0.73413782  0.64107719  0.98872103    -0.80800
O1576       O  0.82093475  0.68118495  0.53313304    -0.79500
Zn1577     Zn  0.79995787  0.77155529  0.98210109     1.55700
O1578       O  0.70366532  0.67001268  0.93277533    -0.80800
Cd1579     Cd  0.75773642  0.69085719  0.52626682     1.59700
Cd1580     Cd  0.70976254  0.78052879  0.53288456     1.59600
O1581       O  0.73395619  0.69055424  0.58683034    -0.80800
O1582       O  0.74748629  0.74387013  0.99370507    -1.91300
Cd1583     Cd  0.71925890  0.73138879  0.93898036     1.59900
O1584       O  0.69739830  0.74885949  0.58964424    -0.80800
O1585       O  0.75247529  0.75176725  0.88769148    -0.79500
C1586       C  0.77770070  0.84819102  0.53717001     0.83100
C1587       C  0.85218725  0.70440870  0.52736279     0.82700
O1588       O  0.80474195  0.78496136  0.91932606    -0.78400
C1589       C  0.71211625  0.63875737  0.95516380     0.83600
O1590       O  0.80266716  0.82540576  0.51716733    -0.78500
C1591       C  0.70992488  0.71507812  0.60620633     0.83700
C1592       C  0.64266108  0.78683005  0.95941780     0.84000
O1593       O  0.65375215  0.79489185  0.49912291    -0.80900
O1594       O  0.50311717  0.84634435  0.73921708    -0.78400
C1595       C  0.88764060  0.79019397  0.77828840     0.82600
O1596       O  0.54203669  0.74473038  0.83707129    -0.79500
O1597       O  0.93420306  0.66940908  0.76440927    -0.81000
O1598       O  0.98493173  0.73712967  0.64030718    -0.80800
O1599       O  0.53508712  0.82129757  0.68330150    -0.79500
Zn1600     Zn  0.98093427  0.80086808  0.77102052     1.55700
O1601       O  0.92958913  0.70849865  0.67076941    -0.80800
Cd1602     Cd  0.52056854  0.76008139  0.69105906     1.59700
Cd1603     Cd  0.52814203  0.71325204  0.78192293     1.59600
O1604       O  0.57668983  0.73031305  0.69006694    -0.80800
O1605       O  0.99183270  0.74945991  0.74422576    -1.91300
Cd1606     Cd  0.93690204  0.72338389  0.73372186     1.59900
O1607       O  0.58414038  0.69844177  0.75152644    -0.80800
O1608       O  0.88815669  0.75630924  0.75866295    -0.79500
C1609       C  0.53179177  0.78070494  0.84877790     0.83100
C1610       C  0.52490528  0.85129954  0.70654497     0.82700
O1611       O  0.92051263  0.81122352  0.78394162    -0.78400
C1612       C  0.95187622  0.71566786  0.63869875     0.83600
O1613       O  0.50904304  0.80382224  0.82622427    -0.78500
C1614       C  0.59791289  0.70827321  0.71535980     0.83700
C1615       C  0.95916092  0.64780935  0.78625277     0.84000
O1616       O  0.99623549  0.65966775  0.79526855    -0.80900
C1617       C  0.75291487  0.99731237  0.51843569    -0.16400
C1618       C  0.74878161  0.50542796  0.97697820    -0.31500
H1619       H  0.73286488  0.01167104  0.54151570     0.12700
H1620       H  0.76895536  0.49086013  0.95414377     0.13200
C1621       C  0.51834375  0.76058298  0.00207809    -0.16400
C1622       C  0.97753111  0.74612127  0.50147090    -0.31500
H1623       H  0.54093927  0.75027664  0.02548459     0.12700
H1624       H  0.95510678  0.75653933  0.47793487     0.13200
C1625       C  0.98391935  0.49908750  0.76629718    -0.16400
C1626       C  0.50818688  0.00169064  0.73202426    -0.31500
H1627       H  0.97929494  0.47033996  0.78237097     0.12700
H1628       H  0.51311167  0.03066984  0.71642207     0.13200
C1629       C  0.76748433  0.75220706  0.73933361    -0.16400
C1630       C  0.74887609  0.71754686  0.75009901    -0.31500
H1631       H  0.76293009  0.76335792  0.70739413     0.12700
H1632       H  0.74866867  0.70872078  0.78299787     0.13200
loop_ 
_geom_bond_atom_site_label_1 
_geom_bond_atom_site_label_2 
_geom_bond_distance 
_geom_bond_site_symmetry_2 
_ccdc_geom_bond_type 
C1            C2   1.528       .  S
C1            C7   1.533       .  S
C1            C5   1.545       .  S
C1          C138   1.507       .  S
C2            H9   1.087       .  S
C2            C3   1.362       .  D
C3            C4   1.544       .  S
C3          C167   1.465       .  S
C4            C8   1.542       .  S
C4            C6   1.523       .  S
C4           H10   1.111       .  S
C5           H11   1.087       .  S
C5            C6   1.360       .  D
C6          C201   1.466       .  S
C7           H12   1.086       .  S
C7            C8   1.371       .  D
C8          C144   1.470       .  S
C13          C14   1.540       .  S
C13          C19   1.542       .  S
C13          C17   1.523       .  S
C13         C187   1.502       .  S
C14          H21   1.086       .  S
C14          C15   1.373       .  D
C15          C16   1.537       .  S
C15         C115   1.478       .  S
C16          C20   1.543       .  S
C16          C18   1.533       .  S
C16         H430   1.111   1_545  S
C17          H23   1.085       .  S
C17          C18   1.361       .  D
C18         C197   1.464   1_545  S
C19          H24   1.086       .  S
C19          C20   1.359       .  D
C20         C141   1.477       .  S
H22         C424   1.111       .  S
C25          C26   1.523       .  S
C25          C31   1.532       .  S
C25          C29   1.525       .  S
C25         C181   1.501       .  S
C26          H33   1.086       .  S
C26          C27   1.372       .  D
C27          C28   1.555       .  S
C27         C164   1.493       .  S
C28          C32   1.560       .  S
C28          C30   1.535       .  S
C28         H238   1.111       .  S
C29         H851   1.087       .  S
C29          C30   1.364       .  D
C30         C193   1.472       .  S
C31          H36   1.086       .  S
C31          C32   1.361       .  D
C32          C98   1.485       .  S
H34         C232   1.111       .  S
H35         C845   1.087       .  S
C37          C38   1.529       .  S
C37          C43   1.539       .  S
C37          C41   1.526       .  S
C37         C186   1.514       .  S
C38          H45   1.086       .  S
C38          C39   1.375       .  D
C39          C40   1.552       .  S
C39         C135   1.495       .  S
C40          C44   1.551       .  S
C40          C42   1.541       .  S
C40          H46   1.111       .  S
C41          H47   1.087       .  S
C41          C42   1.368       .  D
C42         C202   1.476       .  S
C43          H48   1.086       .  S
C43          C44   1.361       .  D
C44         C163   1.484       .  S
C49          C50   1.532       .  S
C49          C55   1.537       .  S
C49          C53   1.532       .  S
C49         C158   1.516       .  S
C50          H57   1.086       .  S
C50          C51   1.378       .  D
C51          C52   1.542       .  S
C51         C140   1.491       .  S
C52          C56   1.549       .  S
C52          C54   1.529       .  S
C52         H466   1.111       .  S
C53          H59   1.087       .  S
C53          C54   1.364       .  D
C54         C189   1.462       .  S
C55          H60   1.086       .  S
C55          C56   1.363       .  D
C56         C113   1.477       .  S
H58         C460   1.111       .  S
C61          C62   1.542       .  S
C61          C67   1.527       .  S
C61          C65   1.536       .  S
C61         C117   1.508       .  S
C62          H69   1.086       .  S
C62          C63   1.357       .  D
C63          C64   1.537       .  S
C63         C159   1.470       .  S
C64          C68   1.543       .  S
C64          C66   1.526       .  S
C64          H70   1.111       .  S
C65          H71   1.087       .  S
C65          C66   1.366       .  D
C66         C194   1.462       .  S
C67          H72   1.087       .  S
C67          C68   1.369       .  D
C68         C184   1.463       .  S
C73          C74   1.539       .  S
C73          C79   1.533       .  S
C73          C77   1.529       .  S
C73         C118   1.509       .  S
C74          H81   1.086       .  S
C74          C75   1.362       .  D
C75          C76   1.545       .  S
C75         C121   1.479       .  S
C76          C80   1.551       .  S
C76          C78   1.530       .  S
C76          H82   1.111       .  S
C77          H83   1.087       .  S
C77          C78   1.364       .  D
C78         C190   1.470       .  S
C79          H84   1.086       .  S
C79          C80   1.370       .  D
C80         C161   1.480       .  S
C85          C86   1.529       .  S
C85          C91   1.520       .  S
C85          C89   1.532       .  S
C85         C182   1.499       .  S
C86          H93   1.087       .  S
C86          C87   1.366       .  D
C87          C88   1.542       .  S
C87         C136   1.469       .  S
C88          C92   1.545       .  S
C88          C90   1.531       .  S
C88         H502   1.111       .  S
C89         H911   1.083   1_455  S
C89          C90   1.361       .  D
C90         C198   1.468       .  S
C91          H96   1.087       .  S
C91          C92   1.371       .  D
C92         C112   1.479       .  S
H94         C496   1.111   1_545  S
H95         C905   1.083       .  S
O97         C113   1.278       .  A
O97        Zn103   2.043       .  S
C98         O114   1.273       .  A
C98         O111   1.278       .  A
O99         C112   1.279       .  A
O99        Cd514   2.117       .  S
O100        C118   1.274       .  A
O100       Cd517   2.053   1_545  S
O101        C115   1.275       .  A
O101       Cd105   2.087       .  S
O102        C113   1.273       .  A
O102       Cd717   2.069   1_554  S
Zn103      O1134   2.034   1_554  S
Zn103       O932   1.953       .  S
Zn103       O312   1.932   1_554  S
O104        C115   1.277       .  A
O104      Cd1333   2.085   1_545  S
Cd105       O714   2.067   1_545  S
Cd105       O311   2.017       .  S
Cd105       O516   1.990   1_545  S
Cd106       O110   2.103       .  S
Cd106       O119   2.085       .  S
Cd106       O507   2.114   1_545  S
Cd106      O1536   2.035   1_444  S
O107        C117   1.268       .  A
O107       Cd309   2.014   1_554  S
O108       Zn307   1.932       .  S
O108       Cd513   1.989       .  S
O108      Cd1534   2.036       .  S
O108       Cd925   1.989       .  S
Cd109       O111   2.092       .  S
Cd109       O508   2.046       .  S
Cd109      O1328   2.082   1_455  S
Cd109       O924   1.990   1_455  S
O110        C933   1.278   1_455  A
C112        O116   1.268       .  A
O114      Zn1123   2.039   1_455  S
O116       Zn919   1.953   1_455  S
C117        O926   1.279       .  A
C118        O323   1.279       .  A
O119        C322   1.278   1_554  A
O120        C136   1.274       .  A
O120       Zn534   2.035       .  S
C121        O137   1.278       .  A
C121        O134   1.277       .  A
O122        C135   1.282       .  A
O122       Cd129   2.139       .  S
O123        C141   1.271       .  A
O123       Cd540   2.052   1_545  S
O124        C138   1.269       .  A
O124       Cd128   2.025       .  S
O125        C136   1.268       .  A
O125       Cd128   2.043       .  S
Zn126       O137   2.036       .  S
Zn126       O139   1.995       .  S
Zn126       O528   2.051   1_545  S
Zn126       O539   1.940   1_545  S
O127        C138   1.276       .  A
O127       Cd132   2.101       .  S
Cd128       O130   2.019       .  S
Cd128       O131   1.977       .  S
Cd129       O133   2.146   1_545  S
Cd129       O142   2.114       .  S
Cd129       O539   2.034   1_545  S
O130        C140   1.268       .  A
O131       Zn534   1.941       .  S
O131       Cd132   2.018       .  S
O131       Cd537   2.032       .  S
Cd132       O531   2.052       .  S
Cd132       O542   2.083       .  S
O133        C548   1.285       .  A
O134       Cd540   2.085   1_545  S
C135        O139   1.273       .  A
C140        O541   1.286       .  A
C141        O142   1.283       .  A
O143        C159   1.275       .  A
O143       Zn353   2.035   1_554  S
C144        O160   1.273       .  A
C144        O157   1.273       .  A
O145        C158   1.281       .  A
O145       Cd152   2.112       .  S
O146        C164   1.274       .  A
O146       Cd155   2.050       .  S
O147        C161   1.277       .  A
O147       Cd355   2.094       .  S
O148        C159   1.273       .  A
O148       Cd151   2.055       .  S
Zn149       O160   2.027       .  S
Zn149       O347   2.004       .  S
Zn149       O366   1.966       .  S
Zn149       O154   1.948       .  S
O150        C161   1.275       .  A
O150       Cd155   2.089       .  S
Cd151       O153   2.070       .  S
Cd151       O351   2.089   1_554  S
Cd151       O358   2.006   1_554  S
Cd152       O156   2.114       .  S
Cd152       O165   2.122   1_554  S
Cd152       O358   2.028   1_554  S
O153        C163   1.272       .  A
O154       Cd155   1.996       .  S
O154       Cd355   2.005       .  S
O154       Cd356   2.025       .  S
Cd155       O157   2.071       .  S
O156        C163   1.284       .  A
C158        O162   1.271       .  A
O162       Zn353   1.994   1_554  S
C164        O369   1.281       .  A
O165        C368   1.279       .  A
O166        C182   1.270       .  A
O166       Zn988   1.965   1_455  S
C167        O183   1.271       .  A
C167        O180   1.270       .  A
O168        C181   1.278       .  A
O168       Cd175   2.088       .  S
O169        C187   1.268       .  A
O169       Cd178   2.018       .  S
O170        C184   1.274       .  A
O170       Cd990   2.065       .  S
O171        C182   1.272       .  A
O171       Cd174   2.069       .  S
Zn172       O183   2.011       .  S
Zn172       O982   1.962       .  S
Zn172      O1001   1.960       .  S
Zn172       O177   1.916       .  S
O173        C184   1.274       .  A
O173       Cd178   2.069       .  S
Cd174       O176   2.038       .  S
Cd174       O986   2.056   1_455  S
Cd174       O993   1.996   1_455  S
Cd175       O179   2.113       .  S
Cd175      O1004   2.104   1_455  S
Cd175       O993   2.014   1_455  S
O176        C186   1.270       .  A
O177       Cd178   1.983       .  S
O177       Cd990   1.993       .  S
O177       Cd991   2.013       .  S
Cd178       O180   2.056       .  S
O179        C186   1.281       .  A
C181        O185   1.268       .  A
O185       Zn988   1.966   1_455  S
C187        O188   1.279       .  A
O188       Cd991   2.093       .  S
C189        H191   1.087       .  S
C189        C802   1.335   1_554  D
C190        H192   1.087   1_545  S
C190        C801   1.335   1_545  D
C193        H195   1.086       .  S
C193       C1214   1.337   1_455  D
C194        H196   1.087   1_554  S
C194       C1213   1.338       .  D
C197        H199   1.082       .  S
C197       C1422   1.344   1_565  D
C198        H200   1.084       .  S
C198       C1421   1.344   1_455  D
C201        H203   1.086       .  S
C201        C202   1.340       .  D
C202        H204   1.086       .  S
C205        C206   1.534       .  S
C205        C211   1.527       .  S
C205        C209   1.542       .  S
C205        C342   1.510       .  S
C206        H213   1.086       .  S
C206        C207   1.368       .  D
C207        C208   1.542       .  S
C207        C371   1.466       .  S
C208        C212   1.551       .  S
C208        C210   1.533       .  S
C208        H214   1.111       .  S
C209        H215   1.087       .  S
C209        C210   1.351       .  D
C210        C405   1.474       .  S
C211        H216   1.086       .  S
C211        C212   1.368       .  D
C212        C348   1.476       .  S
C217        C218   1.539       .  S
C217        C223   1.543       .  S
C217        C221   1.523       .  S
C217        C391   1.503       .  S
C218        H225   1.086       .  S
C218        C219   1.373       .  D
C219        C220   1.538       .  S
C219        C319   1.478       .  S
C220        C224   1.544       .  S
C220        C222   1.533       .  S
C220        H634   1.111   1_545  S
C221        H227   1.085       .  S
C221        C222   1.361       .  D
C222        C401   1.463   1_545  S
C223        H228   1.086       .  S
C223        C224   1.361       .  D
C224        C345   1.479       .  S
H226        C628   1.111       .  S
C229        C230   1.521       .  S
C229        C235   1.531       .  S
C229        C233   1.524       .  S
C229        C385   1.496       .  S
C230        H237   1.087       .  S
C230        C231   1.371       .  D
C231        C232   1.554       .  S
C231        C368   1.490       .  S
C232        C236   1.562       .  S
C232        C234   1.536       .  S
C233       H1055   1.087       .  S
C233        C234   1.363       .  D
C234        C397   1.471   1_556  S
C235        H240   1.087       .  S
C235        C236   1.361       .  D
C236        C302   1.484       .  S
H239       C1049   1.087       .  S
C241        C242   1.534       .  S
C241        C247   1.536       .  S
C241        C245   1.525       .  S
C241        C390   1.514       .  S
C242        H249   1.086       .  S
C242        C243   1.379       .  D
C243        C244   1.546       .  S
C243        C339   1.491       .  S
C244        C248   1.558       .  S
C244        C246   1.544       .  S
C244        H250   1.111       .  S
C245        H251   1.087       .  S
C245        C246   1.361       .  D
C246        C406   1.471       .  S
C247        H252   1.086       .  S
C247        C248   1.360       .  D
C248        C367   1.491       .  S
C253        C254   1.526       .  S
C253        C259   1.538       .  S
C253        C257   1.533       .  S
C253        C362   1.513       .  S
C254        H261   1.086       .  S
C254        C255   1.377       .  D
C255        C256   1.542       .  S
C255        C344   1.487       .  S
C256        C260   1.549       .  S
C256        C258   1.528       .  S
C256        H670   1.111       .  S
C257        H263   1.087       .  S
C257        C258   1.364       .  D
C258        C393   1.462       .  S
C259        H264   1.086       .  S
C259        C260   1.362       .  D
C260        C317   1.476       .  S
H262        C664   1.111       .  S
C265        C266   1.541       .  S
C265        C271   1.529       .  S
C265        C269   1.537       .  S
C265        C321   1.507       .  S
C266        H273   1.086       .  S
C266        C267   1.355       .  D
C267        C268   1.534       .  S
C267        C363   1.463       .  S
C268        C272   1.539       .  S
C268        C270   1.528       .  S
C268        H274   1.111       .  S
C269        H275   1.087       .  S
C269        C270   1.366       .  D
C270        C398   1.466       .  S
C271        H276   1.086       .  S
C271        C272   1.370       .  D
C272        C388   1.460       .  S
C277        C278   1.539       .  S
C277        C283   1.530       .  S
C277        C281   1.531       .  S
C277        C322   1.504       .  S
C278        H285   1.086       .  S
C278        C279   1.362       .  D
C279        C280   1.543       .  S
C279        C325   1.475       .  S
C280        C284   1.549       .  S
C280        C282   1.528       .  S
C280        H286   1.111       .  S
C281        H287   1.087   1_545  S
C281        C282   1.363       .  D
C282        C394   1.467       .  S
C283        H288   1.086       .  S
C283        C284   1.368       .  D
C284        C365   1.474       .  S
C289        C290   1.532       .  S
C289        C295   1.519       .  S
C289        C293   1.533       .  S
C289        C386   1.504       .  S
C290        H297   1.086       .  S
C290        C291   1.369       .  D
C291        C292   1.542       .  S
C291        C340   1.472       .  S
C292        C296   1.544       .  S
C292        C294   1.529       .  S
C292        H706   1.111       .  S
C293       H1115   1.083   1_455  S
C293        C294   1.361       .  D
C294        C402   1.468       .  S
C295        H300   1.087       .  S
C295        C296   1.370       .  D
C296        C316   1.478       .  S
H298        C700   1.111   1_545  S
H299       C1109   1.083       .  S
O301        C317   1.278       .  A
O301       Zn307   2.040       .  S
C302        O318   1.272       .  A
C302        O315   1.279       .  A
O303        C316   1.278       .  A
O303       Cd718   2.112       .  S
O304        C322   1.273       .  A
O304       Cd721   2.044   1_545  S
O305        C319   1.274       .  A
O305       Cd309   2.086       .  S
O306        C317   1.272       .  A
O306       Cd513   2.066       .  S
Zn307       O930   2.030       .  S
Zn307      O1136   1.953       .  S
O308        C319   1.277       .  A
O308      Cd1537   2.087   1_545  S
Cd309       O510   2.066   1_546  S
Cd309       O720   1.991   1_545  S
Cd310       O711   2.113   1_545  S
Cd310       O314   2.102       .  S
Cd310       O323   2.092       .  S
Cd310      O1332   2.038   1_445  S
O311        C321   1.268       .  A
O312       Cd717   1.987       .  S
O312      Cd1330   2.038   1_556  S
O312      Cd1129   1.988       .  S
Cd313       O712   2.049       .  S
Cd313      O1532   2.087   1_455  S
Cd313       O315   2.096       .  S
Cd313      O1128   1.991   1_455  S
O314       C1137   1.278   1_455  A
C316        O320   1.268       .  A
O318       Zn919   2.033   1_456  S
O320      Zn1123   1.954   1_455  S
C321       O1130   1.277       .  A
O324        C340   1.275       .  A
O324       Zn738   2.046       .  S
C325        O341   1.277       .  A
C325        O338   1.276       .  A
O326        C339   1.282       .  A
O326       Cd333   2.135       .  S
O327        C345   1.271       .  A
O327       Cd744   2.057   1_545  S
O328        C342   1.266       .  A
O328       Cd332   2.000       .  S
O329        C340   1.267       .  A
O329       Cd332   2.041       .  S
Zn330       O732   2.036   1_545  S
Zn330       O341   2.026       .  S
Zn330       O343   1.982       .  S
Zn330       O743   1.940   1_545  S
O331        C342   1.275       .  A
O331       Cd336   2.105       .  S
Cd332       O334   2.004       .  S
Cd332       O335   1.960       .  S
Cd333       O337   2.145   1_545  S
Cd333       O346   2.115       .  S
Cd333       O743   2.029   1_545  S
O334        C344   1.266       .  A
O335       Zn738   1.936       .  S
O335       Cd741   2.030       .  S
O335       Cd336   2.022       .  S
Cd336       O735   2.043       .  S
Cd336       O746   2.077       .  S
O337        C752   1.284       .  A
O338       Cd744   2.081   1_545  S
C339        O343   1.271       .  A
C344        O745   1.284       .  A
C345        O346   1.283       .  A
O347        C363   1.271       .  A
C348        O364   1.278       .  A
C348        O361   1.272       .  A
O349        C362   1.281       .  A
O349       Cd356   2.119       .  S
O350        C368   1.274       .  A
O350       Cd359   2.046       .  S
O351        C365   1.276       .  A
O352        C363   1.274       .  A
O352       Cd355   2.057       .  S
Zn353       O364   2.055       .  S
Zn353       O358   1.950       .  S
O354        C365   1.273       .  A
O354       Cd359   2.077       .  S
Cd355       O357   2.083       .  S
Cd356       O360   2.121       .  S
Cd356       O369   2.129       .  S
O357        C367   1.274       .  A
O358       Cd359   1.996       .  S
Cd359       O361   2.068       .  S
O360        C367   1.286       .  A
C362        O366   1.267       .  A
O370        C386   1.269       .  A
O370      Zn1192   1.966   1_455  S
C371        O387   1.271       .  A
C371        O384   1.272       .  A
O372        C385   1.278       .  A
O372       Cd379   2.081       .  S
O373        C391   1.268       .  A
O373       Cd382   2.019       .  S
O374        C388   1.272       .  A
O374      Cd1194   2.052       .  S
O375        C386   1.273       .  A
O375       Cd378   2.079       .  S
Zn376      O1186   1.964       .  S
Zn376       O387   2.010       .  S
Zn376      O1205   1.961       .  S
Zn376       O381   1.918       .  S
O377        C388   1.274       .  A
O377       Cd382   2.072       .  S
Cd378      O1190   2.064   1_455  S
Cd378       O380   2.044       .  S
Cd378      O1197   1.994   1_455  S
Cd379       O383   2.106       .  S
Cd379      O1208   2.093   1_455  S
Cd379      O1197   2.014   1_455  S
O380        C390   1.272       .  A
O381      Cd1194   1.993       .  S
O381      Cd1195   2.011       .  S
O381       Cd382   1.983       .  S
Cd382       O384   2.055       .  S
O383        C390   1.280       .  A
C385        O389   1.266       .  A
O389      Zn1192   1.954   1_455  S
C391        O392   1.280       .  A
O392      Cd1195   2.100       .  S
C393        H395   1.087       .  S
C393        C598   1.335       .  D
C394        H396   1.087   1_545  S
C394        C597   1.334   1_546  D
C397        H399   1.086       .  S
C397       C1010   1.337   1_455  D
C398        H400   1.087       .  S
C398       C1009   1.338       .  D
C401        H403   1.082       .  S
C401       C1626   1.343   1_565  D
C402        H404   1.084       .  S
C402       C1625   1.343   1_455  D
C405        H407   1.089       .  S
C405        C406   1.330       .  D
C406        H408   1.087       .  S
C409        C410   1.529       .  S
C409        C415   1.533       .  S
C409        C413   1.546       .  S
C409        C546   1.510       .  S
C410        H417   1.087       .  S
C410        C411   1.363       .  D
C411        C412   1.543       .  S
C411        C575   1.466       .  S
C412        C416   1.540       .  S
C412        C414   1.523       .  S
C412        H418   1.111       .  S
C413        H419   1.087       .  S
C413        C414   1.360       .  D
C414        C609   1.466       .  S
C415        H420   1.086       .  S
C415        C416   1.371       .  D
C416        C552   1.468       .  S
C421        C422   1.539       .  S
C421        C427   1.543       .  S
C421        C425   1.522       .  S
C421        C595   1.502       .  S
C422        H429   1.086       .  S
C422        C423   1.373       .  D
C423        C424   1.539       .  S
C423        C523   1.478       .  S
C424        C428   1.544       .  S
C424        C426   1.533       .  S
C425        H431   1.085       .  S
C425        C426   1.360       .  D
C426        C605   1.464       .  S
C427        H432   1.086       .  S
C427        C428   1.360       .  D
C428        C549   1.478       .  S
C433        C434   1.522       .  S
C433        C439   1.531       .  S
C433        C437   1.525       .  S
C433        C589   1.498       .  S
C434        H441   1.087       .  S
C434        C435   1.371       .  D
C435        C436   1.556       .  S
C435        C572   1.492       .  S
C436        C440   1.562       .  S
C436        C438   1.537       .  S
C436        H646   1.111       .  S
C437       H1259   1.087       .  S
C437        C438   1.364       .  D
C438        C601   1.475       .  S
C439        H444   1.087       .  S
C439        C440   1.361       .  D
C440        C506   1.485       .  S
H442        C640   1.111       .  S
H443       C1253   1.087       .  S
C445        C446   1.529       .  S
C445        C451   1.539       .  S
C445        C449   1.527       .  S
C445        C594   1.515       .  S
C446        H453   1.086       .  S
C446        C447   1.376       .  D
C447        C448   1.551       .  S
C447        C543   1.496       .  S
C448        C452   1.548       .  S
C448        C450   1.539       .  S
C448        H454   1.111       .  S
C449        H455   1.087       .  S
C449        C450   1.368       .  D
C450        C610   1.476       .  S
C451        H456   1.086       .  S
C451        C452   1.361       .  D
C452        C571   1.480       .  S
C457        C458   1.527       .  S
C457        C463   1.538       .  S
C457        C461   1.532       .  S
C457        C566   1.513       .  S
C458        H465   1.086       .  S
C458        C459   1.377       .  D
C459        C460   1.542       .  S
C459        C548   1.487       .  S
C460        C464   1.549       .  S
C460        C462   1.529       .  S
C461        H467   1.087       .  S
C461        C462   1.364       .  D
C462        C597   1.462       .  S
C463        H468   1.086       .  S
C463        C464   1.362       .  D
C464        C521   1.476       .  S
C469        C470   1.542       .  S
C469        C475   1.528       .  S
C469        C473   1.537       .  S
C469        C525   1.508       .  S
C470        H477   1.086       .  S
C470        C471   1.356       .  D
C471        C472   1.534       .  S
C471        C567   1.467       .  S
C472        C476   1.538       .  S
C472        C474   1.526       .  S
C472        H478   1.112       .  S
C473        H479   1.086       .  S
C473        C474   1.366       .  D
C474        C602   1.463       .  S
C475        H480   1.086       .  S
C475        C476   1.369       .  D
C476        C592   1.458       .  S
C481        C482   1.541       .  S
C481        C487   1.532       .  S
C481        C485   1.530       .  S
C481        C526   1.509       .  S
C482        H489   1.086       .  S
C482        C483   1.362       .  D
C483        C484   1.543       .  S
C483        C529   1.477       .  S
C484        C488   1.550       .  S
C484        C486   1.529       .  S
C484        H490   1.111       .  S
C485        H491   1.087       .  S
C485        C486   1.363       .  D
C486        C598   1.468       .  S
C487        H492   1.086       .  S
C487        C488   1.370       .  D
C488        C569   1.477       .  S
C493        C494   1.532       .  S
C493        C499   1.520       .  S
C493        C497   1.532       .  S
C493        C590   1.504       .  S
C494        H501   1.086       .  S
C494        C495   1.369       .  D
C495        C496   1.543       .  S
C495        C544   1.474       .  S
C496        C500   1.546       .  S
C496        C498   1.530       .  S
C497       H1319   1.083   1_455  S
C497        C498   1.361       .  D
C498        C606   1.468   1_565  S
C499        H504   1.087       .  S
C499        C500   1.371       .  D
C500        C520   1.480       .  S
H503       C1313   1.083       .  S
O505        C521   1.278       .  A
O505       Zn511   2.043       .  S
C506        O522   1.272       .  A
C506        O519   1.279       .  A
O507        C520   1.278       .  A
O508        C526   1.273       .  A
O509        C523   1.275       .  A
O509       Cd513   2.088       .  S
O510        C521   1.272       .  A
Zn511      O1542   2.034   1_554  S
Zn511      O1340   1.957       .  S
Zn511       O720   1.934   1_554  S
O512        C523   1.277       .  A
O512       Cd925   2.087       .  S
Cd513       O719   2.014       .  S
Cd514       O518   2.108       .  S
Cd514       O527   2.093       .  S
Cd514      O1128   2.039   1_454  S
O515        C525   1.268       .  A
O515       Cd717   2.016   1_554  S
O516       Zn715   1.932       .  S
O516      Cd1126   2.038   1_565  S
O516      Cd1333   1.990       .  S
Cd517       O920   2.088   1_465  S
Cd517       O519   2.097       .  S
Cd517      O1332   1.989   1_455  S
O518       C1341   1.279   1_455  A
C520        O524   1.268       .  A
O522      Zn1531   2.033   1_455  S
O524      Zn1327   1.957   1_455  S
C525       O1334   1.278       .  A
C526        O731   1.279       .  A
O527        C730   1.279   1_554  A
O528        C544   1.276       .  A
C529        O545   1.277       .  A
C529        O542   1.276       .  A
O530        C543   1.283       .  A
O530       Cd537   2.145       .  S
O531        C549   1.271       .  A
O532        C546   1.268       .  A
O532       Cd536   2.023       .  S
O533        C544   1.268       .  A
O533       Cd536   2.044       .  S
Zn534       O545   2.031       .  S
Zn534       O547   1.986       .  S
O535        C546   1.277       .  A
O535       Cd540   2.110       .  S
Cd536       O538   2.009       .  S
Cd536       O539   1.975       .  S
Cd537       O541   2.151       .  S
Cd537       O550   2.119       .  S
O538        C548   1.267       .  A
O539       Cd540   2.019       .  S
C543        O547   1.272       .  A
C549        O550   1.284       .  A
O551        C567   1.272       .  A
O551       Zn761   2.011   1_554  S
C552        O568   1.273       .  A
C552        O565   1.274       .  A
O553        C566   1.282       .  A
O553       Cd560   2.119       .  S
O554        C572   1.275       .  A
O554       Cd563   2.054       .  S
O555        C569   1.276       .  A
O555       Cd763   2.087       .  S
O556        C567   1.274       .  A
O556       Cd559   2.060       .  S
Zn557       O755   2.013       .  S
Zn557       O568   2.023       .  S
Zn557       O774   1.971       .  S
Zn557       O562   1.946       .  S
O558        C569   1.275       .  A
O558       Cd563   2.090       .  S
Cd559       O759   2.082   1_554  S
Cd559       O561   2.065       .  S
Cd559       O766   2.001   1_554  S
Cd560       O564   2.110       .  S
Cd560       O573   2.120   1_554  S
Cd560       O766   2.024   1_554  S
O561        C571   1.272       .  A
O562       Cd763   2.004       .  S
O562       Cd764   2.025       .  S
O562       Cd563   1.991       .  S
Cd563       O565   2.069       .  S
O564        C571   1.284       .  A
C566        O570   1.267       .  A
O570       Zn761   1.967   1_554  S
C572        O777   1.278       .  A
O573        C776   1.279       .  A
O574        C590   1.270       .  A
O574      Zn1396   1.970   1_455  S
C575        O591   1.271       .  A
C575        O588   1.270       .  A
O576        C589   1.278       .  A
O576       Cd583   2.083       .  S
O577        C595   1.267       .  A
O577       Cd586   2.015       .  S
O578        C592   1.273       .  A
O578      Cd1398   2.058       .  S
O579        C590   1.272       .  A
O579       Cd582   2.075       .  S
Zn580      O1390   1.966       .  S
Zn580       O591   2.013       .  S
Zn580      O1409   1.960       .  S
Zn580       O585   1.918       .  S
O581        C592   1.273       .  A
O581       Cd586   2.064       .  S
Cd582      O1394   2.061   1_455  S
Cd582       O584   2.044       .  S
Cd582      O1401   1.996   1_455  S
Cd583       O587   2.111       .  S
Cd583      O1412   2.100   1_455  S
Cd583      O1401   2.015   1_455  S
O584        C594   1.272       .  A
O585      Cd1398   1.993       .  S
O585      Cd1399   2.014       .  S
O585       Cd586   1.985       .  S
Cd586       O588   2.056       .  S
O587        C594   1.281       .  A
C589        O593   1.267       .  A
O593      Zn1396   1.963   1_455  S
C595        O596   1.280       .  A
O596      Cd1399   2.101       .  S
C597        H599   1.087   1_565  S
C598        H600   1.087       .  S
C601        H603   1.086       .  S
C601       C1622   1.339   1_455  D
C602        H604   1.087   1_554  S
C602       C1621   1.337       .  D
C605        H607   1.082       .  S
C605       C1014   1.344       .  D
C606        H608   1.084       .  S
C606       C1013   1.344   1_445  D
C609        H611   1.086       .  S
C609        C610   1.339       .  D
C610        H612   1.086       .  S
C613        C614   1.529       .  S
C613        C619   1.533       .  S
C613        C617   1.545       .  S
C613        C750   1.507       .  S
C614        H621   1.087       .  S
C614        C615   1.362       .  D
C615        C616   1.542       .  S
C615        C779   1.463       .  S
C616        C620   1.539       .  S
C616        C618   1.522       .  S
C616        H622   1.111       .  S
C617        H623   1.087       .  S
C617        C618   1.360       .  D
C618        C813   1.464       .  S
C619        H624   1.086       .  S
C619        C620   1.371       .  D
C620        C756   1.466       .  S
C625        C626   1.539       .  S
C625        C631   1.540       .  S
C625        C629   1.524       .  S
C625        C799   1.501       .  S
C626        H633   1.086       .  S
C626        C627   1.373       .  D
C627        C628   1.539       .  S
C627        C727   1.479       .  S
C628        C632   1.544       .  S
C628        C630   1.533       .  S
C629        H635   1.085       .  S
C629        C630   1.361       .  D
C630        C809   1.465       .  S
C631        H636   1.086       .  S
C631        C632   1.357       .  D
C632        C753   1.473       .  S
C637        C638   1.523       .  S
C637        C643   1.530       .  S
C637        C641   1.526       .  S
C637        C793   1.498       .  S
C638        H645   1.087       .  S
C638        C639   1.372       .  D
C639        C640   1.555       .  S
C639        C776   1.491       .  S
C640        C644   1.561       .  S
C640        C642   1.535       .  S
C641       H1463   1.087       .  S
C641        C642   1.364       .  D
C642        C805   1.473   1_556  S
C643        H648   1.087       .  S
C643        C644   1.360       .  D
C644        C710   1.484       .  S
H647       C1457   1.087       .  S
C649        C650   1.529       .  S
C649        C655   1.538       .  S
C649        C653   1.528       .  S
C649        C798   1.513       .  S
C650        H657   1.086       .  S
C650        C651   1.376       .  D
C651        C652   1.548       .  S
C651        C747   1.491       .  S
C652        C656   1.546       .  S
C652        C654   1.537       .  S
C652        H658   1.111       .  S
C653        H659   1.087       .  S
C653        C654   1.368       .  D
C654        C814   1.472       .  S
C655        H660   1.086       .  S
C655        C656   1.360       .  D
C656        C775   1.477       .  S
C661        C662   1.527       .  S
C661        C667   1.538       .  S
C661        C665   1.533       .  S
C661        C770   1.513       .  S
C662        H669   1.086       .  S
C662        C663   1.377       .  D
C663        C664   1.542       .  S
C663        C752   1.488       .  S
C664        C668   1.549       .  S
C664        C666   1.528       .  S
C665        H671   1.087       .  S
C665        C666   1.364       .  D
C666        C801   1.461       .  S
C667        H672   1.086       .  S
C667        C668   1.362       .  D
C668        C725   1.477       .  S
C673        C674   1.542       .  S
C673        C679   1.528       .  S
C673        C677   1.536       .  S
C673        C729   1.507       .  S
C674        H681   1.086       .  S
C674        C675   1.356       .  D
C675        C676   1.535       .  S
C675        C771   1.467       .  S
C676        C680   1.540       .  S
C676        C678   1.527       .  S
C676        H682   1.111       .  S
C677        H683   1.087       .  S
C677        C678   1.365       .  D
C678        C806   1.463       .  S
C679        H684   1.086       .  S
C679        C680   1.369       .  D
C680        C796   1.460       .  S
C685        C686   1.540       .  S
C685        C691   1.533       .  S
C685        C689   1.530       .  S
C685        C730   1.508       .  S
C686        H693   1.086       .  S
C686        C687   1.362       .  D
C687        C688   1.541       .  S
C687        C733   1.473       .  S
C688        C692   1.548       .  S
C688        C690   1.530       .  S
C688        H694   1.111       .  S
C689        H695   1.087       .  S
C689        C690   1.363       .  D
C690        C802   1.470       .  S
C691        H696   1.086       .  S
C691        C692   1.370       .  D
C692        C773   1.476       .  S
C697        C698   1.529       .  S
C697        C703   1.518       .  S
C697        C701   1.532       .  S
C697        C794   1.499       .  S
C698        H705   1.087       .  S
C698        C699   1.367       .  D
C699        C700   1.543       .  S
C699        C748   1.470       .  S
C700        C704   1.545       .  S
C700        C702   1.531       .  S
C701       H1523   1.083   1_455  S
C701        C702   1.360       .  D
C702        C810   1.470   1_565  S
C703        H708   1.087       .  S
C703        C704   1.371       .  D
C704        C724   1.477       .  S
H707       C1517   1.083       .  S
O709        C725   1.278       .  A
O709       Zn715   2.044       .  S
C710        O726   1.273       .  A
C710        O723   1.278       .  A
O711        C724   1.278       .  A
O712        C730   1.273       .  A
O713        C727   1.275       .  A
O713       Cd717   2.088       .  S
O714        C725   1.273       .  A
Zn715      O1338   2.037       .  S
Zn715      O1544   1.956       .  S
O716        C727   1.276       .  A
O716      Cd1129   2.084       .  S
Cd718       O722   2.105       .  S
Cd718       O731   2.097       .  S
Cd718       O924   2.037   1_455  S
O719        C729   1.268       .  A
O720       Cd922   2.039   1_566  S
O720      Cd1537   1.989       .  S
Cd721      O1124   2.085   1_465  S
Cd721       O723   2.090       .  S
Cd721      O1536   1.991   1_455  S
O722       C1545   1.278   1_455  A
C724        O728   1.267       .  A
O726      Zn1327   2.037   1_456  S
O728      Zn1531   1.948   1_455  S
C729       O1538   1.278       .  A
O732        C748   1.273       .  A
C733        O749   1.277       .  A
C733        O746   1.276       .  A
O734        C747   1.283       .  A
O734       Cd741   2.138       .  S
O735        C753   1.269       .  A
O736        C750   1.268       .  A
O736       Cd740   2.022       .  S
O737        C748   1.268       .  A
O737       Cd740   2.045       .  S
Zn738       O749   2.027       .  S
Zn738       O751   1.981       .  S
O739        C750   1.277       .  A
O739       Cd744   2.104       .  S
Cd740       O742   2.010       .  S
Cd740       O743   1.974       .  S
Cd741       O745   2.147       .  S
Cd741       O754   2.113       .  S
O742        C752   1.267       .  A
O743       Cd744   2.016       .  S
C747        O751   1.271       .  A
C753        O754   1.284       .  A
O755        C771   1.272       .  A
C756        O772   1.272       .  A
C756        O769   1.274       .  A
O757        C770   1.281       .  A
O757       Cd764   2.116       .  S
O758        C776   1.274       .  A
O758       Cd767   2.051       .  S
O759        C773   1.275       .  A
O760        C771   1.274       .  A
O760       Cd763   2.060       .  S
Zn761       O772   2.018       .  S
Zn761       O766   1.945       .  S
O762        C773   1.275       .  A
O762       Cd767   2.088       .  S
Cd763       O765   2.063       .  S
Cd764       O768   2.102       .  S
Cd764       O777   2.120       .  S
O765        C775   1.272       .  A
O766       Cd767   1.992       .  S
Cd767       O769   2.067       .  S
O768        C775   1.283       .  A
C770        O774   1.268       .  A
O778        C794   1.269       .  A
O778      Zn1600   1.959   1_455  S
C779        O795   1.271       .  A
C779        O792   1.270       .  A
O780        C793   1.277       .  A
O780       Cd787   2.082       .  S
O781        C799   1.268       .  A
O781       Cd790   2.019       .  S
O782        C796   1.273       .  A
O782      Cd1602   2.061       .  S
O783        C794   1.272       .  A
O783       Cd786   2.069       .  S
Zn784      O1594   1.968       .  S
Zn784       O795   2.008       .  S
Zn784      O1613   1.960       .  S
Zn784       O789   1.917       .  S
O785        C796   1.274       .  A
O785       Cd790   2.066       .  S
Cd786      O1598   2.056   1_455  S
Cd786       O788   2.039       .  S
Cd786      O1605   1.996   1_455  S
Cd787       O791   2.109       .  S
Cd787      O1616   2.099   1_455  S
Cd787      O1605   2.012   1_455  S
O788        C798   1.271       .  A
O789      Cd1602   1.993       .  S
O789      Cd1603   2.013       .  S
O789       Cd790   1.982       .  S
Cd790       O792   2.054       .  S
O791        C798   1.280       .  A
C793        O797   1.267       .  A
O797      Zn1600   1.960   1_455  S
C799        O800   1.278       .  A
O800      Cd1603   2.091       .  S
C801        H803   1.087   1_565  S
C802        H804   1.087       .  S
C805        H807   1.086       .  S
C805       C1418   1.337   1_455  D
C806        H808   1.087       .  S
C806       C1417   1.338       .  D
C809        H811   1.083       .  S
C809       C1218   1.344       .  D
C810        H812   1.083       .  S
C810       C1217   1.345   1_445  D
C813        H815   1.086       .  S
C813        C814   1.337       .  D
C814        H816   1.087       .  S
C817        C818   1.530       .  S
C817        C823   1.533       .  S
C817        C821   1.546       .  S
C817        C954   1.509       .  S
C818        H825   1.087       .  S
C818        C819   1.363       .  D
C819        C820   1.544       .  S
C819        C983   1.469       .  S
C820        C824   1.540       .  S
C820        C822   1.522       .  S
C820        H826   1.111       .  S
C821        H827   1.087       .  S
C821        C822   1.360       .  D
C822       C1017   1.465       .  S
C823        H828   1.086       .  S
C823        C824   1.371       .  D
C824        C960   1.468       .  S
C829        C830   1.539       .  S
C829        C835   1.544       .  S
C829        C833   1.523       .  S
C829       C1003   1.505       .  S
C830        H837   1.086       .  S
C830        C831   1.373       .  D
C831        C832   1.539       .  S
C831        C931   1.479       .  S
C832        C836   1.545       .  S
C832        C834   1.534       .  S
C832       H1246   1.111   1_545  S
C833        H839   1.085   1_655  S
C833        C834   1.361       .  D
C834       C1013   1.464   1_545  S
C835        H840   1.086       .  S
C835        C836   1.361       .  D
C836        C957   1.481       .  S
H838       C1240   1.111       .  S
C841        C842   1.522       .  S
C841        C847   1.530       .  S
C841        C845   1.526       .  S
C841        C997   1.496       .  S
C842        H849   1.087       .  S
C842        C843   1.370       .  D
C843        C844   1.555       .  S
C843        C980   1.491       .  S
C844        C848   1.562       .  S
C844        C846   1.537       .  S
C844       H1054   1.111       .  S
C845        C846   1.364       .  D
C846       C1009   1.475       .  S
C847        H852   1.087       .  S
C847        C848   1.360       .  D
C848        C914   1.484       .  S
H850       C1048   1.111   1_554  S
C853        C854   1.530       .  S
C853        C859   1.539       .  S
C853        C857   1.527       .  S
C853       C1002   1.514       .  S
C854        H861   1.086       .  S
C854        C855   1.376       .  D
C855        C856   1.551       .  S
C855        C951   1.497       .  S
C856        C860   1.548       .  S
C856        C858   1.539       .  S
C856        H862   1.111       .  S
C857        H863   1.087       .  S
C857        C858   1.368       .  D
C858       C1018   1.475       .  S
C859        H864   1.086       .  S
C859        C860   1.360       .  D
C860        C979   1.480       .  S
C865        C866   1.527       .  S
C865        C871   1.539       .  S
C865        C869   1.532       .  S
C865        C974   1.514       .  S
C866        H873   1.086       .  S
C866        C867   1.377       .  D
C867        C868   1.542       .  S
C867        C956   1.487       .  S
C868        C872   1.549       .  S
C868        C870   1.529       .  S
C868       H1282   1.111       .  S
C869        H875   1.087       .  S
C869        C870   1.364       .  D
C870       C1005   1.462       .  S
C871        H876   1.086       .  S
C871        C872   1.363       .  D
C872        C929   1.477       .  S
H874       C1276   1.111       .  S
C877        C878   1.542       .  S
C877        C883   1.529       .  S
C877        C881   1.537       .  S
C877        C933   1.508       .  S
C878        H885   1.086       .  S
C878        C879   1.357       .  D
C879        C880   1.534       .  S
C879        C975   1.466       .  S
C880        C884   1.539       .  S
C880        C882   1.526       .  S
C880        H886   1.111       .  S
C881        H887   1.087   1_654  S
C881        C882   1.366       .  D
C882       C1010   1.463       .  S
C883        H888   1.086       .  S
C883        C884   1.370       .  D
C884       C1000   1.460       .  S
C889        C890   1.542       .  S
C889        C895   1.531       .  S
C889        C893   1.530       .  S
C889        C934   1.508       .  S
C890        H897   1.086       .  S
C890        C891   1.362       .  D
C891        C892   1.543       .  S
C891        C937   1.478       .  S
C892        C896   1.549       .  S
C892        C894   1.529       .  S
C892        H898   1.111       .  S
C893        H899   1.087       .  S
C893        C894   1.364       .  D
C894       C1006   1.468       .  S
C895        H900   1.086       .  S
C895        C896   1.370       .  D
C896        C977   1.476       .  S
C901        C902   1.531       .  S
C901        C907   1.518       .  S
C901        C905   1.532       .  S
C901        C998   1.501       .  S
C902        H909   1.086       .  S
C902        C903   1.368       .  D
C903        C904   1.542       .  S
C903        C952   1.471       .  S
C904        C908   1.545       .  S
C904        C906   1.530       .  S
C904       H1318   1.111       .  S
C905        C906   1.361       .  D
C906       C1014   1.468       .  S
C907        H912   1.087       .  S
C907        C908   1.370       .  D
C908        C928   1.478       .  S
H910       C1312   1.111       .  S
O913        C929   1.278       .  A
O913       Zn919   2.042       .  S
C914        O930   1.272       .  A
C914        O927   1.279       .  A
O915        C928   1.278       .  A
O915      Cd1330   2.112       .  S
O916        C934   1.273       .  A
O916      Cd1333   2.046   1_545  S
O917        C931   1.275       .  A
O917       Cd921   2.086       .  S
O918        C929   1.273       .  A
O918      Cd1533   2.069   1_554  S
Zn919      O1128   1.934   1_554  S
O920        C931   1.277       .  A
Cd921      O1530   2.065   1_545  S
Cd921      O1127   2.013       .  S
Cd921      O1332   1.990   1_545  S
Cd922      O1323   2.115   1_545  S
Cd922       O926   2.106       .  S
Cd922       O935   2.095       .  S
O923        C933   1.268       .  A
O923      Cd1125   2.017   1_554  S
O924      Zn1123   1.933       .  S
O924      Cd1329   1.990       .  S
Cd925      O1324   2.052       .  S
Cd925       O927   2.095       .  S
C928        O932   1.268       .  A
C934       O1139   1.279       .  A
O935       C1138   1.279   1_554  A
O936        C952   1.275       .  A
O936      Zn1350   2.045       .  S
C937        O953   1.277       .  A
C937        O950   1.277       .  A
O938        C951   1.284       .  A
O938       Cd945   2.147       .  S
O939        C957   1.271       .  A
O939      Cd1356   2.055   1_545  S
O940        C954   1.268       .  A
O940       Cd944   2.020       .  S
O941        C952   1.267       .  A
O941       Cd944   2.042       .  S
Zn942      O1344   2.040   1_545  S
Zn942       O953   2.033       .  S
Zn942       O955   1.991       .  S
Zn942      O1355   1.943   1_545  S
O943        C954   1.277       .  A
O943       Cd948   2.106       .  S
Cd944       O946   2.007       .  S
Cd944       O947   1.974       .  S
Cd945       O949   2.155   1_545  S
Cd945       O958   2.123       .  S
Cd945      O1355   2.032   1_545  S
O946        C956   1.267       .  A
O947      Zn1350   1.938       .  S
O947      Cd1353   2.033       .  S
O947       Cd948   2.018       .  S
Cd948      O1347   2.049       .  S
Cd948      O1358   2.083       .  S
O949       C1364   1.286       .  A
O950      Cd1356   2.086   1_545  S
C951        O955   1.272       .  A
C956       O1357   1.285       .  A
C957        O958   1.285       .  A
O959        C975   1.272       .  A
O959      Zn1169   2.012   1_554  S
C960        O976   1.272       .  A
C960        O973   1.275       .  A
O961        C974   1.282       .  A
O961       Cd968   2.121       .  S
O962        C980   1.275       .  A
O962       Cd971   2.053       .  S
O963        C977   1.276       .  A
O963      Cd1171   2.086       .  S
O964        C975   1.273       .  A
O964       Cd967   2.057       .  S
Zn965      O1163   2.013       .  S
Zn965       O976   2.020       .  S
Zn965      O1182   1.969       .  S
Zn965       O970   1.945       .  S
O966        C977   1.275       .  A
O966       Cd971   2.088       .  S
Cd967      O1167   2.081   1_554  S
Cd967       O969   2.062       .  S
Cd967      O1174   2.001   1_554  S
Cd968       O972   2.112       .  S
Cd968       O981   2.121   1_554  S
Cd968      O1174   2.024   1_554  S
O969        C979   1.272       .  A
O970      Cd1171   2.003       .  S
O970      Cd1172   2.024       .  S
O970       Cd971   1.994       .  S
Cd971       O973   2.072       .  S
O972        C979   1.284       .  A
C974        O978   1.267       .  A
O978      Zn1169   1.968   1_554  S
C980       O1185   1.278       .  A
O981       C1184   1.279       .  A
O982        C998   1.269       .  A
C983        O999   1.272       .  A
C983        O996   1.271       .  A
O984        C997   1.277       .  A
O984       Cd991   2.078       .  S
O985       C1003   1.267       .  A
O985       Cd994   2.018       .  S
O986       C1000   1.273       .  A
O987        C998   1.273       .  A
O987       Cd990   2.073       .  S
Zn988       O999   2.018       .  S
Zn988       O993   1.920       .  S
O989       C1000   1.274       .  A
O989       Cd994   2.068       .  S
Cd990       O992   2.041       .  S
Cd991       O995   2.108       .  S
O992       C1002   1.271       .  A
O993       Cd994   1.985       .  S
Cd994       O996   2.060       .  S
O995       C1002   1.280       .  A
C997       O1001   1.267       .  A
C1003      O1004   1.281       .  A
C1005      H1007   1.087       .  S
C1005      C1618   1.335   1_554  D
C1006      H1008   1.087   1_545  S
C1006      C1617   1.334   1_545  D
C1009      H1011   1.086       .  S
C1010      H1012   1.087   1_554  S
C1013      H1015   1.083       .  S
C1014      H1016   1.084       .  S
C1017      H1019   1.086       .  S
C1017      C1018   1.338       .  D
C1018      H1020   1.086       .  S
C1021      C1022   1.530       .  S
C1021      C1027   1.533       .  S
C1021      C1025   1.545       .  S
C1021      C1158   1.510       .  S
C1022      H1029   1.087       .  S
C1022      C1023   1.363       .  D
C1023      C1024   1.543       .  S
C1023      C1187   1.466       .  S
C1024      C1028   1.539       .  S
C1024      C1026   1.523       .  S
C1024      H1030   1.111       .  S
C1025      H1031   1.087       .  S
C1025      C1026   1.359       .  D
C1026      C1221   1.465       .  S
C1027      H1032   1.086       .  S
C1027      C1028   1.371       .  D
C1028      C1164   1.467       .  S
C1033      C1034   1.539       .  S
C1033      C1039   1.540       .  S
C1033      C1037   1.523       .  S
C1033      C1207   1.501       .  S
C1034      H1041   1.086       .  S
C1034      C1035   1.373       .  D
C1035      C1036   1.539       .  S
C1035      C1135   1.478       .  S
C1036      C1040   1.544       .  S
C1036      C1038   1.534       .  S
C1036      H1450   1.111   1_545  S
C1037      H1043   1.085   1_655  S
C1037      C1038   1.361       .  D
C1038      C1217   1.466   1_545  S
C1039      H1044   1.086       .  S
C1039      C1040   1.357       .  D
C1040      C1161   1.473       .  S
H1042      C1444   1.111       .  S
C1045      C1046   1.523       .  S
C1045      C1051   1.531       .  S
C1045      C1049   1.524       .  S
C1045      C1201   1.498       .  S
C1046      H1053   1.086       .  S
C1046      C1047   1.372       .  D
C1047      C1048   1.555       .  S
C1047      C1184   1.491       .  S
C1048      C1052   1.560       .  S
C1048      C1050   1.536       .  S
C1049      C1050   1.363       .  D
C1050      C1213   1.473   1_556  S
C1051      H1056   1.087       .  S
C1051      C1052   1.361       .  D
C1052      C1118   1.483       .  S
C1057      C1058   1.528       .  S
C1057      C1063   1.539       .  S
C1057      C1061   1.527       .  S
C1057      C1206   1.512       .  S
C1058      H1065   1.086       .  S
C1058      C1059   1.375       .  D
C1059      C1060   1.549       .  S
C1059      C1155   1.491       .  S
C1060      C1064   1.546       .  S
C1060      C1062   1.539       .  S
C1060      H1066   1.111       .  S
C1061      H1067   1.087       .  S
C1061      C1062   1.367       .  D
C1062      C1222   1.474       .  S
C1063      H1068   1.086       .  S
C1063      C1064   1.361       .  D
C1064      C1183   1.479       .  S
C1069      C1070   1.528       .  S
C1069      C1075   1.538       .  S
C1069      C1073   1.533       .  S
C1069      C1178   1.513       .  S
C1070      H1077   1.086       .  S
C1070      C1071   1.377       .  D
C1071      C1072   1.544       .  S
C1071      C1160   1.491       .  S
C1072      C1076   1.551       .  S
C1072      C1074   1.530       .  S
C1072      H1486   1.111       .  S
C1073      H1079   1.087       .  S
C1073      C1074   1.363       .  D
C1074      C1209   1.464       .  S
C1075      H1080   1.086       .  S
C1075      C1076   1.362       .  D
C1076      C1133   1.479       .  S
H1078      C1480   1.111       .  S
C1081      C1082   1.541       .  S
C1081      C1087   1.528       .  S
C1081      C1085   1.535       .  S
C1081      C1137   1.506       .  S
C1082      H1089   1.086       .  S
C1082      C1083   1.356       .  D
C1083      C1084   1.536       .  S
C1083      C1179   1.467       .  S
C1084      C1088   1.540       .  S
C1084      C1086   1.527       .  S
C1084      H1090   1.111       .  S
C1085      H1091   1.087   1_655  S
C1085      C1086   1.365       .  D
C1086      C1214   1.463       .  S
C1087      H1092   1.086       .  S
C1087      C1088   1.369       .  D
C1088      C1204   1.461       .  S
C1093      C1094   1.541       .  S
C1093      C1099   1.533       .  S
C1093      C1097   1.530       .  S
C1093      C1138   1.509       .  S
C1094      H1101   1.086       .  S
C1094      C1095   1.361       .  D
C1095      C1096   1.543       .  S
C1095      C1141   1.477       .  S
C1096      C1100   1.548       .  S
C1096      C1098   1.531       .  S
C1096      H1102   1.111       .  S
C1097      H1103   1.087       .  S
C1097      C1098   1.364       .  D
C1098      C1210   1.472       .  S
C1099      H1104   1.086       .  S
C1099      C1100   1.371       .  D
C1100      C1181   1.475       .  S
C1105      C1106   1.530       .  S
C1105      C1111   1.519       .  S
C1105      C1109   1.531       .  S
C1105      C1202   1.499       .  S
C1106      H1113   1.087       .  S
C1106      C1107   1.367       .  D
C1107      C1108   1.543       .  S
C1107      C1156   1.472       .  S
C1108      C1112   1.546       .  S
C1108      C1110   1.531       .  S
C1108      H1522   1.111       .  S
C1109      C1110   1.361       .  D
C1110      C1218   1.469       .  S
C1111      H1116   1.087       .  S
C1111      C1112   1.371       .  D
C1112      C1132   1.478       .  S
H1114      C1516   1.111   1_545  S
O1117      C1133   1.279       .  A
O1117     Zn1123   2.050       .  S
C1118      O1134   1.273       .  A
C1118      O1131   1.278       .  A
O1119      C1132   1.278       .  A
O1119     Cd1534   2.112       .  S
O1120      C1138   1.273       .  A
O1120     Cd1537   2.048   1_545  S
O1121      C1135   1.275       .  A
O1121     Cd1125   2.088       .  S
O1122      C1133   1.272       .  A
O1122     Cd1329   2.066       .  S
O1124      C1135   1.276       .  A
Cd1125     O1326   2.064   1_546  S
Cd1125     O1536   1.989   1_545  S
Cd1126     O1527   2.109   1_545  S
Cd1126     O1130   2.102       .  S
Cd1126     O1139   2.094       .  S
O1127      C1137   1.268       .  A
O1128     Cd1533   1.990       .  S
Cd1129     O1528   2.044       .  S
Cd1129     O1131   2.089       .  S
C1132      O1136   1.268       .  A
O1140      C1156   1.274       .  A
O1140     Zn1554   2.040       .  S
C1141      O1157   1.279       .  A
C1141      O1154   1.276       .  A
O1142      C1155   1.283       .  A
O1142     Cd1149   2.136       .  S
O1143      C1161   1.269       .  A
O1143     Cd1560   2.042   1_545  S
O1144      C1158   1.269       .  A
O1144     Cd1148   2.027       .  S
O1145      C1156   1.269       .  A
O1145     Cd1148   2.050       .  S
Zn1146     O1548   2.049   1_545  S
Zn1146     O1157   2.039       .  S
Zn1146     O1159   1.986       .  S
Zn1146     O1559   1.939       .  S
O1147      C1158   1.277       .  A
O1147     Cd1152   2.106       .  S
Cd1148     O1150   2.017       .  S
Cd1148     O1151   1.977       .  S
Cd1149     O1153   2.148       .  S
Cd1149     O1162   2.112       .  S
Cd1149     O1559   2.030       .  S
O1150      C1160   1.269       .  A
O1151     Zn1554   1.944       .  S
O1151     Cd1557   2.031       .  S
O1151     Cd1152   2.020       .  S
Cd1152     O1551   2.054       .  S
Cd1152     O1562   2.078       .  S
O1153      C1568   1.284   1_545  A
O1154     Cd1560   2.079   1_545  S
C1155      O1159   1.272       .  A
C1160      O1561   1.285       .  A
C1161      O1162   1.283       .  A
O1163      C1179   1.272       .  A
C1164      O1180   1.272       .  A
C1164      O1177   1.273       .  A
O1165      C1178   1.281       .  A
O1165     Cd1172   2.114       .  S
O1166      C1184   1.274       .  A
O1166     Cd1175   2.051       .  S
O1167      C1181   1.275       .  A
O1168      C1179   1.274       .  A
O1168     Cd1171   2.061       .  S
Zn1169     O1180   2.020       .  S
Zn1169     O1174   1.944       .  S
O1170      C1181   1.275       .  A
O1170     Cd1175   2.085       .  S
Cd1171     O1173   2.067       .  S
Cd1172     O1176   2.104       .  S
Cd1172     O1185   2.118       .  S
O1173      C1183   1.273       .  A
O1174     Cd1175   1.991       .  S
Cd1175     O1177   2.066       .  S
O1176      C1183   1.283       .  A
C1178      O1182   1.267       .  A
O1186      C1202   1.269       .  A
C1187      O1203   1.271       .  A
C1187      O1200   1.270       .  A
O1188      C1201   1.277       .  A
O1188     Cd1195   2.084       .  S
O1189      C1207   1.267       .  A
O1189     Cd1198   2.015       .  S
O1190      C1204   1.274       .  A
O1191      C1202   1.271       .  A
O1191     Cd1194   2.066       .  S
Zn1192     O1203   2.012       .  S
Zn1192     O1197   1.917       .  S
O1193      C1204   1.274       .  A
O1193     Cd1198   2.066       .  S
Cd1194     O1196   2.035       .  S
Cd1195     O1199   2.109       .  S
O1196      C1206   1.270       .  A
O1197     Cd1198   1.983       .  S
Cd1198     O1200   2.057       .  S
O1199      C1206   1.280       .  A
C1201      O1205   1.267       .  A
C1207      O1208   1.278       .  A
C1209      H1211   1.087       .  S
C1209      C1414   1.336       .  D
C1210      H1212   1.087   1_545  S
C1210      C1413   1.336   1_546  D
C1213      H1215   1.086       .  S
C1214      H1216   1.087       .  S
C1217      H1219   1.082       .  S
C1218      H1220   1.084       .  S
C1221      H1223   1.086       .  S
C1221      C1222   1.338       .  D
C1222      H1224   1.087       .  S
C1225      C1226   1.529       .  S
C1225      C1231   1.533       .  S
C1225      C1229   1.545       .  S
C1225      C1362   1.509       .  S
C1226      H1233   1.087       .  S
C1226      C1227   1.363       .  D
C1227      C1228   1.544       .  S
C1227      C1391   1.467       .  S
C1228      C1232   1.541       .  S
C1228      C1230   1.522       .  S
C1228      H1234   1.111       .  S
C1229      H1235   1.087       .  S
C1229      C1230   1.360       .  D
C1230      C1425   1.465       .  S
C1231      H1236   1.086       .  S
C1231      C1232   1.371       .  D
C1232      C1368   1.470       .  S
C1237      C1238   1.539       .  S
C1237      C1243   1.542       .  S
C1237      C1241   1.524       .  S
C1237      C1411   1.504       .  S
C1238      H1245   1.086       .  S
C1238      C1239   1.373       .  D
C1239      C1240   1.538       .  S
C1239      C1339   1.477       .  S
C1240      C1244   1.543       .  S
C1240      C1242   1.532       .  S
C1241      H1247   1.085   1_655  S
C1241      C1242   1.361       .  D
C1242      C1421   1.464       .  S
C1243      H1248   1.086       .  S
C1243      C1244   1.359       .  D
C1244      C1365   1.476       .  S
C1249      C1250   1.524       .  S
C1249      C1255   1.532       .  S
C1249      C1253   1.525       .  S
C1249      C1405   1.500       .  S
C1250      H1257   1.086       .  S
C1250      C1251   1.373       .  D
C1251      C1252   1.556       .  S
C1251      C1388   1.494       .  S
C1252      C1256   1.562       .  S
C1252      C1254   1.536       .  S
C1252      H1462   1.111       .  S
C1253      C1254   1.364       .  D
C1254      C1417   1.473       .  S
C1255      H1260   1.087       .  S
C1255      C1256   1.361       .  D
C1256      C1322   1.486       .  S
H1258      C1456   1.111   1_554  S
C1261      C1262   1.529       .  S
C1261      C1267   1.540       .  S
C1261      C1265   1.527       .  S
C1261      C1410   1.516       .  S
C1262      H1269   1.086       .  S
C1262      C1263   1.376       .  D
C1263      C1264   1.551       .  S
C1263      C1359   1.495       .  S
C1264      C1268   1.550       .  S
C1264      C1266   1.539       .  S
C1264      H1270   1.111       .  S
C1265      H1271   1.087       .  S
C1265      C1266   1.368       .  D
C1266      C1426   1.475       .  S
C1267      H1272   1.086       .  S
C1267      C1268   1.362       .  D
C1268      C1387   1.485       .  S
C1273      C1274   1.531       .  S
C1273      C1279   1.535       .  S
C1273      C1277   1.533       .  S
C1273      C1382   1.516       .  S
C1274      H1281   1.086       .  S
C1274      C1275   1.378       .  D
C1275      C1276   1.543       .  S
C1275      C1364   1.492       .  S
C1276      C1280   1.550       .  S
C1276      C1278   1.529       .  S
C1277      H1283   1.087       .  S
C1277      C1278   1.364       .  D
C1278      C1413   1.464       .  S
C1279      H1284   1.086       .  S
C1279      C1280   1.362       .  D
C1280      C1337   1.476       .  S
C1285      C1286   1.542       .  S
C1285      C1291   1.527       .  S
C1285      C1289   1.537       .  S
C1285      C1341   1.510       .  S
C1286      H1293   1.086       .  S
C1286      C1287   1.357       .  D
C1287      C1288   1.536       .  S
C1287      C1383   1.470       .  S
C1288      C1292   1.543       .  S
C1288      C1290   1.528       .  S
C1288      H1294   1.111       .  S
C1289      H1295   1.087   1_655  S
C1289      C1290   1.366       .  D
C1290      C1418   1.465       .  S
C1291      H1296   1.087       .  S
C1291      C1292   1.369       .  D
C1292      C1408   1.462       .  S
C1297      C1298   1.539       .  S
C1297      C1303   1.532       .  S
C1297      C1301   1.530       .  S
C1297      C1342   1.508       .  S
C1298      H1305   1.086       .  S
C1298      C1299   1.362       .  D
C1299      C1300   1.545       .  S
C1299      C1345   1.478       .  S
C1300      C1304   1.552       .  S
C1300      C1302   1.531       .  S
C1300      H1306   1.111       .  S
C1301      H1307   1.087       .  S
C1301      C1302   1.364       .  D
C1302      C1414   1.471       .  S
C1303      H1308   1.086       .  S
C1303      C1304   1.369       .  D
C1304      C1385   1.479       .  S
C1309      C1310   1.531       .  S
C1309      C1315   1.520       .  S
C1309      C1313   1.532       .  S
C1309      C1406   1.500       .  S
C1310      H1317   1.087       .  S
C1310      C1311   1.367       .  D
C1311      C1312   1.542       .  S
C1311      C1360   1.471       .  S
C1312      C1316   1.545       .  S
C1312      C1314   1.531       .  S
C1313      C1314   1.362       .  D
C1314      C1422   1.469   1_565  S
C1315      H1320   1.087       .  S
C1315      C1316   1.370       .  D
C1316      C1336   1.479       .  S
O1321      C1337   1.279       .  A
O1321     Zn1327   2.044       .  S
C1322      O1338   1.273       .  A
C1322      O1335   1.279       .  A
O1323      C1336   1.278       .  A
O1324      C1342   1.274       .  A
O1325      C1339   1.274       .  A
O1325     Cd1329   2.084       .  S
O1326      C1337   1.272       .  A
Zn1327     O1536   1.931   1_554  S
O1328      C1339   1.276       .  A
Cd1329     O1535   2.016       .  S
Cd1330     O1334   2.105       .  S
Cd1330     O1343   2.086       .  S
O1331      C1341   1.268       .  A
O1331     Cd1533   2.016   1_554  S
O1332     Zn1531   1.932       .  S
Cd1333     O1335   2.097       .  S
C1336      O1340   1.268       .  A
C1342      O1547   1.278       .  A
O1343      C1546   1.278   1_554  A
O1344      C1360   1.274       .  A
C1345      O1361   1.278       .  A
C1345      O1358   1.276       .  A
O1346      C1359   1.283       .  A
O1346     Cd1353   2.141       .  S
O1347      C1365   1.270       .  A
O1348      C1362   1.268       .  A
O1348     Cd1352   2.024       .  S
O1349      C1360   1.268       .  A
O1349     Cd1352   2.048       .  S
Zn1350     O1361   2.035       .  S
Zn1350     O1363   1.989       .  S
O1351      C1362   1.277       .  A
O1351     Cd1356   2.105       .  S
Cd1352     O1354   2.018       .  S
Cd1352     O1355   1.980       .  S
Cd1353     O1357   2.148       .  S
Cd1353     O1366   2.115       .  S
O1354      C1364   1.268       .  A
O1355     Cd1356   2.019       .  S
C1359      O1363   1.272       .  A
C1365      O1366   1.284       .  A
O1367      C1383   1.275       .  A
O1367     Zn1577   2.033   1_554  S
C1368      O1384   1.272       .  A
C1368      O1381   1.273       .  A
O1369      C1382   1.281       .  A
O1369     Cd1376   2.114       .  S
O1370      C1388   1.275       .  A
O1370     Cd1379   2.051       .  S
O1371      C1385   1.277       .  A
O1371     Cd1579   2.094       .  S
O1372      C1383   1.274       .  A
O1372     Cd1375   2.057       .  S
Zn1373     O1571   2.005       .  S
Zn1373     O1384   2.026       .  S
Zn1373     O1590   1.973       .  S
Zn1373     O1378   1.949       .  S
O1374      C1385   1.275       .  A
O1374     Cd1379   2.090       .  S
Cd1375     O1575   2.089   1_554  S
Cd1375     O1377   2.073       .  S
Cd1375     O1582   2.007   1_554  S
Cd1376     O1380   2.115       .  S
Cd1376     O1389   2.121   1_554  S
Cd1376     O1582   2.029   1_554  S
O1377      C1387   1.273       .  A
O1378     Cd1579   2.007       .  S
O1378     Cd1580   2.026       .  S
O1378     Cd1379   1.998       .  S
Cd1379     O1381   2.072       .  S
O1380      C1387   1.284       .  A
C1382      O1386   1.271       .  A
O1386     Zn1577   1.991   1_554  S
C1388      O1593   1.282       .  A
O1389      C1592   1.279       .  A
O1390      C1406   1.270       .  A
C1391      O1407   1.272       .  A
C1391      O1404   1.271       .  A
O1392      C1405   1.278       .  A
O1392     Cd1399   2.087       .  S
O1393      C1411   1.268       .  A
O1393     Cd1402   2.020       .  S
O1394      C1408   1.274       .  A
O1395      C1406   1.272       .  A
O1395     Cd1398   2.068       .  S
Zn1396     O1407   2.014       .  S
Zn1396     O1401   1.918       .  S
O1397      C1408   1.275       .  A
O1397     Cd1402   2.073       .  S
Cd1398     O1400   2.042       .  S
Cd1399     O1403   2.116       .  S
O1400      C1410   1.271       .  A
O1401     Cd1402   1.984       .  S
Cd1402     O1404   2.059       .  S
O1403      C1410   1.281       .  A
C1405      O1409   1.267       .  A
C1411      O1412   1.279       .  A
C1413      H1415   1.086   1_565  S
C1414      H1416   1.087       .  S
C1417      H1419   1.086       .  S
C1418      H1420   1.087   1_554  S
C1421      H1423   1.083       .  S
C1422      H1424   1.084       .  S
C1425      H1427   1.086       .  S
C1425      C1426   1.339       .  D
C1426      H1428   1.086       .  S
C1429      C1430   1.536       .  S
C1429      C1435   1.527       .  S
C1429      C1433   1.542       .  S
C1429      C1566   1.512       .  S
C1430      H1437   1.086       .  S
C1430      C1431   1.369       .  D
C1431      C1432   1.543       .  S
C1431      C1595   1.469       .  S
C1432      C1436   1.552       .  S
C1432      C1434   1.532       .  S
C1432      H1438   1.111       .  S
C1433      H1439   1.087       .  S
C1433      C1434   1.351       .  D
C1434      C1629   1.475       .  S
C1435      H1440   1.086       .  S
C1435      C1436   1.369       .  D
C1436      C1572   1.477       .  S
C1441      C1442   1.540       .  S
C1441      C1447   1.543       .  S
C1441      C1445   1.523       .  S
C1441      C1615   1.504       .  S
C1442      H1449   1.086       .  S
C1442      C1443   1.373       .  D
C1443      C1444   1.538       .  S
C1443      C1543   1.479       .  S
C1444      C1448   1.544       .  S
C1444      C1446   1.533       .  S
C1445      H1451   1.085       .  S
C1445      C1446   1.361       .  D
C1446      C1625   1.464       .  S
C1447      H1452   1.086       .  S
C1447      C1448   1.361       .  D
C1448      C1569   1.480       .  S
C1453      C1454   1.522       .  S
C1453      C1459   1.530       .  S
C1453      C1457   1.524       .  S
C1453      C1609   1.496       .  S
C1454      H1461   1.087       .  S
C1454      C1455   1.371       .  D
C1455      C1456   1.554       .  S
C1455      C1592   1.490       .  S
C1456      C1460   1.561       .  S
C1456      C1458   1.535       .  S
C1457      C1458   1.363       .  D
C1458      C1621   1.471   1_556  S
C1459      H1464   1.087       .  S
C1459      C1460   1.361       .  D
C1460      C1526   1.484       .  S
C1465      C1466   1.535       .  S
C1465      C1471   1.536       .  S
C1465      C1469   1.525       .  S
C1465      C1614   1.513       .  S
C1466      H1473   1.086       .  S
C1466      C1467   1.379       .  D
C1467      C1468   1.548       .  S
C1467      C1563   1.495       .  S
C1468      C1472   1.560       .  S
C1468      C1470   1.546       .  S
C1468      H1474   1.111       .  S
C1469      H1475   1.087       .  S
C1469      C1470   1.360       .  D
C1470      C1630   1.472       .  S
C1471      H1476   1.086       .  S
C1471      C1472   1.359       .  D
C1472      C1591   1.491       .  S
C1477      C1478   1.528       .  S
C1477      C1483   1.537       .  S
C1477      C1481   1.533       .  S
C1477      C1586   1.514       .  S
C1478      H1485   1.086       .  S
C1478      C1479   1.377       .  D
C1479      C1480   1.542       .  S
C1479      C1568   1.488       .  S
C1480      C1484   1.550       .  S
C1480      C1482   1.528       .  S
C1481      H1487   1.087       .  S
C1481      C1482   1.364       .  D
C1482      C1617   1.462       .  S
C1483      H1488   1.086       .  S
C1483      C1484   1.362       .  D
C1484      C1541   1.476       .  S
C1489      C1490   1.542       .  S
C1489      C1495   1.529       .  S
C1489      C1493   1.536       .  S
C1489      C1545   1.508       .  S
C1490      H1497   1.086       .  S
C1490      C1491   1.357       .  D
C1491      C1492   1.534       .  S
C1491      C1587   1.464       .  S
C1492      C1496   1.539       .  S
C1492      C1494   1.527       .  S
C1492      H1498   1.111       .  S
C1493      H1499   1.087   1_655  S
C1493      C1494   1.365       .  D
C1494      C1622   1.465       .  S
C1495      H1500   1.086       .  S
C1495      C1496   1.370       .  D
C1496      C1612   1.461       .  S
C1501      C1502   1.540       .  S
C1501      C1507   1.531       .  S
C1501      C1505   1.530       .  S
C1501      C1546   1.504       .  S
C1502      H1509   1.086       .  S
C1502      C1503   1.361       .  D
C1503      C1504   1.543       .  S
C1503      C1549   1.475       .  S
C1504      C1508   1.549       .  S
C1504      C1506   1.529       .  S
C1504      H1510   1.111       .  S
C1505      H1511   1.087       .  S
C1505      C1506   1.363       .  D
C1506      C1618   1.467       .  S
C1507      H1512   1.086       .  S
C1507      C1508   1.369       .  D
C1508      C1589   1.475       .  S
C1513      C1514   1.532       .  S
C1513      C1519   1.520       .  S
C1513      C1517   1.532       .  S
C1513      C1610   1.502       .  S
C1514      H1521   1.086       .  S
C1514      C1515   1.368       .  D
C1515      C1516   1.541       .  S
C1515      C1564   1.472       .  S
C1516      C1520   1.545       .  S
C1516      C1518   1.529       .  S
C1517      C1518   1.362       .  D
C1518      C1626   1.468   1_565  S
C1519      H1524   1.087       .  S
C1519      C1520   1.370       .  D
C1520      C1540   1.478       .  S
O1525      C1541   1.278       .  A
O1525     Zn1531   2.040       .  S
C1526      O1542   1.273       .  A
C1526      O1539   1.279       .  A
O1527      C1540   1.278       .  A
O1528      C1546   1.273       .  A
O1529      C1543   1.274       .  A
O1529     Cd1533   2.087       .  S
O1530      C1541   1.272       .  A
O1532      C1543   1.277       .  A
Cd1534     O1538   2.102       .  S
Cd1534     O1547   2.088       .  S
O1535      C1545   1.268       .  A
Cd1537     O1539   2.094       .  S
C1540      O1544   1.268       .  A
O1548      C1564   1.276       .  A
C1549      O1565   1.277       .  A
C1549      O1562   1.276       .  A
O1550      C1563   1.284       .  A
O1550     Cd1557   2.143       .  S
O1551      C1569   1.271       .  A
O1552      C1566   1.266       .  A
O1552     Cd1556   2.003       .  S
O1553      C1564   1.267       .  A
O1553     Cd1556   2.041       .  S
Zn1554     O1565   2.031       .  S
Zn1554     O1567   1.987       .  S
O1555      C1566   1.275       .  A
O1555     Cd1560   2.107       .  S
Cd1556     O1558   2.006       .  S
Cd1556     O1559   1.962   1_565  S
Cd1557     O1561   2.151       .  S
Cd1557     O1570   2.121       .  S
O1558      C1568   1.266       .  A
O1559     Cd1560   2.022   1_545  S
C1563      O1567   1.271       .  A
C1569      O1570   1.284       .  A
O1571      C1587   1.272       .  A
C1572      O1588   1.278       .  A
C1572      O1585   1.272       .  A
O1573      C1586   1.281       .  A
O1573     Cd1580   2.120       .  S
O1574      C1592   1.274       .  A
O1574     Cd1583   2.048       .  S
O1575      C1589   1.276       .  A
O1576      C1587   1.274       .  A
O1576     Cd1579   2.057       .  S
Zn1577     O1588   2.054       .  S
Zn1577     O1582   1.951       .  S
O1578      C1589   1.274       .  A
O1578     Cd1583   2.079       .  S
Cd1579     O1581   2.081       .  S
Cd1580     O1584   2.126       .  S
Cd1580     O1593   2.133       .  S
O1581      C1591   1.274       .  A
O1582     Cd1583   1.996       .  S
Cd1583     O1585   2.071       .  S
O1584      C1591   1.286       .  A
C1586      O1590   1.268       .  A
O1594      C1610   1.270       .  A
C1595      O1611   1.271       .  A
C1595      O1608   1.272       .  A
O1596      C1609   1.277       .  A
O1596     Cd1603   2.079       .  S
O1597      C1615   1.268       .  A
O1597     Cd1606   2.022       .  S
O1598      C1612   1.273       .  A
O1599      C1610   1.272       .  A
O1599     Cd1602   2.073       .  S
Zn1600     O1611   2.011       .  S
Zn1600     O1605   1.918       .  S
O1601      C1612   1.275       .  A
O1601     Cd1606   2.073       .  S
Cd1602     O1604   2.043       .  S
Cd1603     O1607   2.103       .  S
O1604      C1614   1.272       .  A
O1605     Cd1606   1.983       .  S
Cd1606     O1608   2.060       .  S
O1607      C1614   1.279       .  A
C1609      O1613   1.267       .  A
C1615      O1616   1.280       .  A
C1617      H1619   1.087   1_565  S
C1618      H1620   1.087       .  S
C1621      H1623   1.086       .  S
C1622      H1624   1.087       .  S
C1625      H1627   1.083       .  S
C1626      H1628   1.084       .  S
C1629      H1631   1.089       .  S
C1629      C1630   1.330       .  D
C1630      H1632   1.087       .  S
