geometry optimzed in LAMMPS
_audit_creation_date              2020-11-30 
_audit_creation_method            'lammps2cif' 
_symmetry_space_group_name_H-M    'P1' 
_symmetry_Int_Tables_number       1 
_symmetry_cell_setting            triclinic 
loop_ 
_symmetry_equiv_pos_as_xyz 
  x,y,z 
_cell_length_a                    57.76430702 
_cell_length_b                    40.927575559832135 
_cell_length_c                    32.16225502526299 
_cell_angle_alpha                 90.8009241332846 
_cell_angle_beta                  89.95641037081396 
_cell_angle_gamma                 90.13316470118025 
loop_ 
_atom_site_label 
_atom_site_type_symbol 
_atom_site_fract_x 
_atom_site_fract_y 
_atom_site_fract_z 
_atom_site_charge 
C1          C  0.67079465  0.27416869  0.75134937     0.85900
C2          C  0.68721093  0.30324939  0.75753034    -0.54300
C3          C  0.70618906  0.30296607  0.73212950     0.08800
C4          C  0.70709845  0.27267795  0.70307411     0.19800
C5          C  0.66495519  0.27402844  0.70441363    -0.55100
C6          C  0.68403830  0.27309801  0.67913969     0.08900
C7          C  0.68614146  0.24386700  0.75667484    -0.54600
C8          C  0.70527052  0.24277428  0.73158403     0.09500
H9          H  0.68389654  0.32231102  0.78054380     0.14000
H10         H  0.72220178  0.27247242  0.68201905    -0.00200
H11         H  0.64760026  0.27339377  0.69178160     0.14300
H12         H  0.68210239  0.22517813  0.77914109     0.14100
C13         C  0.67747150  0.27067003  0.29139484     0.85900
C14         C  0.69096684  0.23869062  0.28616999    -0.54300
C15         C  0.70971822  0.23586302  0.31174702     0.08800
C16         C  0.71308393  0.26578835  0.34089366     0.19800
C17         C  0.67131525  0.27248838  0.33797374    -0.55100
C18         C  0.68986544  0.26977433  0.36438097     0.08900
C19         C  0.69583788  0.29776514  0.28592262    -0.54600
C20         C  0.71431331  0.29525242  0.31198609     0.09500
H21         H  0.68564065  0.21971713  0.26427579     0.14000
H22         H  0.72865298  0.26397828  0.36061492    -0.00200
H23         H  0.65368098  0.27621664  0.34854898     0.14300
H24         H  0.69442513  0.31822112  0.26515058     0.14100
O25         O  0.53899429  0.23261555  0.06921315    -0.72400
O26         O  0.49496302  0.22650790  0.98198587    -0.72600
O27         O  0.54088688  0.23446828  0.98573441    -0.72400
O28         O  0.49301951  0.22493300  0.06562733    -0.72400
O29         O  0.48959596  0.27769115  0.06989538    -0.72400
O30         O  0.53520464  0.28689255  0.98570969    -0.72400
O31         O  0.48910427  0.27883355  0.98634062    -0.72400
O32         O  0.53576856  0.28544685  0.06973928    -0.72600
V33         V  0.51686453  0.23066400  0.02569462     1.35200
V34         V  0.51253482  0.28123489  0.02790517     1.35200
C35         C  0.54503799  0.26001273  0.08428149     0.76900
C36         C  0.48442844  0.25151948  0.96936039     0.76900
C37         C  0.54582450  0.26222561  0.97130730     0.76800
C38         C  0.48339856  0.24972534  0.08192548     0.76800
C39         C  0.35890985  0.22962719  0.75075271     0.85900
C40         C  0.34233592  0.20132410  0.76006409    -0.54300
C41         C  0.32307299  0.20014299  0.73551078     0.08800
C42         C  0.32202599  0.22812866  0.70397375     0.19800
C43         C  0.36415062  0.22583918  0.70379485    -0.55100
C44         C  0.34481158  0.22526695  0.67893637     0.08900
C45         C  0.34405179  0.26060997  0.75368273    -0.54600
C46         C  0.32464633  0.26010862  0.72949352     0.09500
H47         H  0.34581232  0.18350939  0.78395787     0.14000
H48         H  0.30611031  0.22741894  0.68506468    -0.00200
H49         H  0.38138329  0.22370874  0.69108581     0.14300
H50         H  0.34916060  0.28160475  0.77253446     0.14100
C51         C  0.35362017  0.22664484  0.29156952     0.85900
C52         C  0.33806125  0.25641648  0.28495904    -0.54300
C53         C  0.31927672  0.25823956  0.31072597     0.08800
C54         C  0.31769480  0.22938026  0.34094985     0.19800
C55         C  0.35986637  0.22807406  0.33805385    -0.55100
C56         C  0.34107831  0.22920436  0.36389984     0.08900
C57         C  0.33714240  0.19697300  0.28759022    -0.54600
C58         C  0.31841069  0.19860586  0.31331400     0.09500
H59         H  0.34223606  0.27504686  0.26244753     0.14000
H60         H  0.30245287  0.23001092  0.36196566    -0.00200
H61         H  0.37754027  0.22709048  0.34946589     0.14300
H62         H  0.33969406  0.17594481  0.26740688     0.14100
C63         C  0.85303703  0.02688710  0.74654453     0.85900
C64         C  0.83974119  0.49118038  0.75836191    -0.54300
C65         C  0.82129688  0.49012287  0.73174631     0.08800
C66         C  0.81707582  0.02330169  0.69754114     0.19800
C67         C  0.85905780  0.02810174  0.69984268    -0.55100
C68         C  0.84023844  0.02606529  0.67392194     0.08900
C69         C  0.83550764  0.05488824  0.75278890    -0.54600
C70         C  0.81681419  0.05297576  0.72721023     0.09500
H71         H  0.84344094  0.47201034  0.78036312     0.14000
H72         H  0.80165292  0.02176115  0.67721901    -0.00200
H73         H  0.87666637  0.03077030  0.68859872     0.14300
H74         H  0.83784526  0.07575021  0.77342834     0.14100
C75         C  0.86198396  0.51555200  0.29606832     0.85900
C76         C  0.83797386  0.04241640  0.28037526    -0.54300
C77         C  0.81887192  0.04220480  0.30545334     0.08800
C78         C  0.82620053  0.51308399  0.34563299     0.19800
C79         C  0.86833097  0.51470659  0.34275264    -0.55100
C80         C  0.84133796  0.01547719  0.35951329     0.08900
C81         C  0.84654914  0.48523917  0.28955059    -0.54600
C82         C  0.82782396  0.48342205  0.31556854     0.09500
H83         H  0.84156779  0.06165498  0.25838321     0.14000
H84         H  0.81119284  0.51245119  0.36684053    -0.00200
H85         H  0.88581961  0.51398464  0.35469226     0.14300
H86         H  0.85044919  0.46687655  0.26597819     0.14100
O87         O  0.03760569  0.47208239  0.06063238    -0.72400
O88         O  0.99375099  0.47819275  0.97310932    -0.72600
O89         O  0.03984487  0.47077727  0.97680256    -0.72400
O90         O  0.99153129  0.47940344  0.05659629    -0.72400
O91         O  0.99286171  0.03121964  0.05771623    -0.72400
O92         O  0.03793641  0.02498965  0.97155782    -0.72400
O93         O  0.99192331  0.03305745  0.97398351    -0.72400
O94         O  0.03890239  0.02328334  0.05513373    -0.72600
V95         V  0.01579657  0.47612046  0.01677713     1.35200
V96         V  0.01531351  0.02713050  0.01457523     1.35200
C97         C  0.04382589  0.99552179  0.06939346     0.76900
C98         C  0.98255017  0.00832732  0.95698897     0.76900
C99         C  0.04382436  0.99743864  0.95669653     0.76800
C100        C  0.98196556  0.00611857  0.06945814     0.76800
C101        C  0.17368039  0.97946184  0.74543944     0.85900
C102        C  0.18941938  0.00895694  0.75461536    -0.54300
C103        C  0.20855776  0.01107410  0.72972104     0.08800
C104        C  0.21509363  0.48184612  0.69946592     0.19800
C105        C  0.17293946  0.48036670  0.70165978    -0.55100
C106        C  0.18722681  0.98305735  0.67341802     0.08900
C107        C  0.19520742  0.44720309  0.74892407    -0.54600
C108        C  0.21408282  0.44989637  0.72374610     0.09500
H109        H  0.18556273  0.02654025  0.77921294     0.14000
H110        H  0.23039859  0.48304487  0.67879962    -0.00200
H111        H  0.15524073  0.48068936  0.69037103     0.14300
H112        H  0.19228893  0.42527647  0.76657984     0.14100
C113        C  0.17026571  0.98127045  0.28627294     0.85900
C114        C  0.19126391  0.45304179  0.28162670    -0.54300
C115        C  0.21045727  0.45257043  0.30660874     0.08800
C116        C  0.20669467  0.97995822  0.33419295     0.19800
C117        C  0.16451802  0.97780893  0.33303180    -0.55100
C118        C  0.18370213  0.97754950  0.35796237     0.08900
C119        C  0.18527793  0.01233546  0.28467971    -0.54600
C120        C  0.20442963  0.01142262  0.30920079     0.09500
H121        H  0.18725971  0.43392995  0.25902076     0.14000
H122        H  0.22185566  0.98012188  0.35525752    -0.00200
H123        H  0.14719798  0.97777478  0.34598120     0.14300
H124        H  0.18119324  0.03326186  0.26563910     0.14100
C125        C  0.20377266  0.99339019  0.55961094    -0.11400
C126        C  0.18424782  0.98092805  0.53847213     0.05700
C127        C  0.17085520  0.46868452  0.56501388    -0.10200
C128        C  0.17183396  0.46857918  0.60846257    -0.11800
C129        C  0.18589755  0.98303245  0.62690260    -0.01600
C130        C  0.20444267  0.99485291  0.60305324    -0.10700
C131        C  0.18339525  0.98023210  0.49194540     0.05700
H132        H  0.15629587  0.45686591  0.54988241     0.07700
H133        H  0.15843135  0.45573846  0.62521263     0.11100
H134        H  0.21955526  0.00556342  0.61763870     0.11400
H135        H  0.21877278  0.00187650  0.54269120     0.07700
C136        C  0.19500356  0.00428974  0.46891228    -0.11400
C137        C  0.19491841  0.00326270  0.42550674    -0.10700
C138        C  0.18275766  0.97872144  0.40392384    -0.01600
C139        C  0.17782618  0.45570981  0.42964632    -0.11800
C140        C  0.17800610  0.45647794  0.47315210    -0.10200
H141        H  0.20406221  0.02419671  0.48428925     0.07700
H142        H  0.20420890  0.02194249  0.40867122     0.11400
H143        H  0.17040326  0.43484769  0.41338017     0.11100
H144        H  0.17093571  0.43573823  0.48939686     0.07700
C145        C  0.13006688  0.95961244  0.83254627    -0.11400
C146        C  0.11404675  0.98510486  0.82880582     0.05700
C147        C  0.12294358  0.50441283  0.80200272    -0.10200
C148        C  0.14147019  0.50207670  0.77404673    -0.11800
C149        C  0.15224095  0.97970476  0.77346278    -0.01600
C150        C  0.14886800  0.95694467  0.80547589    -0.10700
C151        C  0.09497750  0.98865973  0.85962079     0.05700
H152        H  0.11088934  0.52445343  0.79900448     0.07700
H153        H  0.14342281  0.52074058  0.75075390     0.11100
H154        H  0.16095702  0.93761255  0.81149480     0.11400
H155        H  0.12857697  0.94226676  0.85752951     0.07700
C156        C  0.09004485  0.45765370  0.88137864    -0.11400
C157        C  0.07314297  0.46110413  0.91233790    -0.10700
C158        C  0.06120334  0.99464078  0.92297454    -0.01600
C159        C  0.07222680  0.02251926  0.90724892    -0.11800
C160        C  0.08894796  0.01956271  0.87589970    -0.10200
H161        H  0.09398817  0.43338734  0.86959591     0.07700
H162        H  0.06465273  0.43938614  0.92375607     0.11400
H163        H  0.06816215  0.04659960  0.91955803     0.11100
H164        H  0.09763863  0.04137406  0.86529228     0.07700
C165        C  0.08276402  0.46523640  0.16473895    -0.11400
C166        C  0.09591866  0.98680552  0.16405645     0.05700
C167        C  0.09128164  0.01711560  0.14613367    -0.10200
C168        C  0.07421718  0.01989253  0.11568975    -0.11800
C169        C  0.06165655  0.99228414  0.10211091    -0.01600
C170        C  0.06609891  0.46755693  0.13337682    -0.10700
C171        C  0.11453630  0.98410476  0.19523138     0.05700
H172        H  0.10087054  0.03868479  0.15584933     0.07700
H173        H  0.07099741  0.04366910  0.10254630     0.09900
H174        H  0.05363044  0.44796132  0.12939584     0.11400
H175        H  0.08304773  0.44375302  0.18402344     0.07700
C176        C  0.11339816  0.47881528  0.24244921    -0.11400
C177        C  0.13130589  0.47685814  0.27165950    -0.10700
C178        C  0.15023230  0.98202484  0.25533328    -0.01600
C179        C  0.15487648  0.99119630  0.21405412    -0.11800
C180        C  0.13719425  0.99288598  0.18467478    -0.10200
H181        H  0.09569813  0.47497164  0.25242449     0.07700
H182        H  0.12665651  0.47093510  0.30313874     0.11400
H183        H  0.17229809  0.99753674  0.20459678     0.11100
H184        H  0.14123058  0.00078470  0.15348376     0.07700
C185        C  0.94648330  0.03625435  0.16158794    -0.11400
C186        C  0.92897725  0.01241137  0.16340044     0.05700
C187        C  0.93490352  0.48766177  0.14088848    -0.10200
C188        C  0.95181709  0.48528108  0.10982688    -0.11800
C189        C  0.96384481  0.00838082  0.10188042    -0.01600
C190        C  0.96363073  0.03444006  0.13081101    -0.10700
C191        C  0.91038924  0.01445475  0.19520954     0.05700
H192        H  0.92194763  0.46858270  0.14313974     0.07700
H193        H  0.95146989  0.46446293  0.08867144     0.11100
H194        H  0.97684803  0.05323253  0.12986541     0.11400
H195        H  0.94665550  0.05656672  0.18353572     0.07700
C196        C  0.91563581  0.02031068  0.23728230    -0.11400
C197        C  0.89810498  0.02037393  0.26744978    -0.10700
C198        C  0.88167921  0.51693596  0.26406574    -0.01600
C199        C  0.87603544  0.51407059  0.22151581    -0.11800
C200        C  0.89324668  0.51331122  0.19094966    -0.10200
H201        H  0.93340320  0.02413546  0.24696318     0.07700
H202        H  0.90312698  0.02499603  0.29925522     0.11400
H203        H  0.85813154  0.51168477  0.21192823     0.11100
H204        H  0.88825896  0.51032802  0.15866183     0.07700
C205        C  0.91107770  0.00289791  0.79465704    -0.11400
C206        C  0.91197817  0.02238710  0.83094767     0.05700
C207        C  0.89723567  0.54001330  0.84512724    -0.10200
C208        C  0.87814191  0.54241677  0.81884330    -0.11800
C209        C  0.87406756  0.02707429  0.77529744    -0.01600
C210        C  0.89228373  0.00502175  0.76743824    -0.10700
C211        C  0.93113145  0.01902246  0.86143731     0.05700
H212        H  0.89829486  0.55631815  0.87186598     0.07700
H213        H  0.86540938  0.56056208  0.82703945     0.11100
H214        H  0.89183575  0.98908539  0.74028187     0.11400
H215        H  0.92485001  0.98586965  0.78734115     0.07700
C216        C  0.94032310  0.98811792  0.87033783    -0.11400
C217        C  0.95716636  0.98469351  0.90112403    -0.10700
C218        C  0.96519610  0.01207910  0.92367298    -0.01600
C219        C  0.96202145  0.53908926  0.91406948    -0.11800
C220        C  0.94453546  0.54161091  0.88432927    -0.10200
H221        H  0.93401127  0.96639830  0.85441811     0.07700
H222        H  0.96372467  0.96051821  0.90756977     0.11400
H223        H  0.96946833  0.56127948  0.92706720     0.11100
H224        H  0.93908475  0.56569495  0.87489811     0.07700
C225        C  0.82377108  0.03637380  0.56045339    -0.11400
C226        C  0.84332379  0.02418202  0.53966588     0.05700
C227        C  0.86822781  0.50720394  0.57370450    -0.10200
C228        C  0.86625524  0.50971716  0.61700453    -0.11800
C229        C  0.84179740  0.02642089  0.62757993    -0.01600
C230        C  0.82307207  0.03769284  0.60381707    -0.10700
C231        C  0.84335369  0.02141116  0.49372927     0.05700
H232        H  0.88409470  0.49789062  0.56012056     0.07700
H233        H  0.88067813  0.50167464  0.63563712     0.11100
H234        H  0.80774468  0.04766033  0.61841813     0.11400
H235        H  0.80899102  0.04494452  0.54302681     0.07700
C236        C  0.82500776  0.00556480  0.47318208    -0.11400
C237        C  0.82467947  0.00303892  0.42984728    -0.10700
C238        C  0.84243794  0.01698445  0.40588981    -0.01600
C239        C  0.86879410  0.52768313  0.43689546    -0.11800
C240        C  0.86883119  0.52808664  0.48044287    -0.10200
H241        H  0.81104271  0.99470833  0.49079088     0.07700
H242        H  0.81057584  0.98970823  0.41538867     0.11400
H243        H  0.88198827  0.54133776  0.42065469     0.11100
H244        H  0.88207218  0.54185012  0.49691029     0.07700
C245        C  0.29279746  0.11432524  0.32512203    -0.11400
C246        C  0.26918796  0.11968839  0.31670336     0.05700
C247        C  0.26187810  0.15191446  0.30893847    -0.10200
C248        C  0.27776827  0.17781048  0.30913207    -0.11800
C249        C  0.30130950  0.17187162  0.31592504    -0.01600
C250        C  0.30869055  0.14005036  0.32417071    -0.10700
C251        C  0.25248504  0.09172814  0.31541195     0.05700
H252        H  0.24399595  0.15715403  0.30166451     0.07700
H253        H  0.27182806  0.20229203  0.30260327     0.11100
H254        H  0.32680651  0.13516179  0.33012817     0.11400
H255        H  0.29910968  0.09025350  0.33258655     0.07700
C256        C  0.25977823  0.06022915  0.30280428    -0.11400
C257        C  0.24425035  0.03398082  0.30183886    -0.10700
C258        C  0.22098055  0.03882642  0.31216684    -0.01600
C259        C  0.21344814  0.07003824  0.32436135    -0.11800
C260        C  0.22907919  0.09615253  0.32649073    -0.10200
H261        H  0.27741384  0.05580038  0.29292447     0.07700
H262        H  0.25025096  0.01005530  0.29193265     0.11400
H263        H  0.19550136  0.07406946  0.33274175     0.11100
H264        H  0.22279257  0.11967373  0.33721653     0.07700
C265        C  0.28489762  0.33103508  0.27292257    -0.11400
C266        C  0.27303170  0.34124527  0.30901738     0.05700
C267        C  0.27621672  0.32328712  0.34565949    -0.10200
C268        C  0.29104840  0.29628066  0.34621959    -0.11800
C269        C  0.30278270  0.28617188  0.31002986    -0.01600
C270        C  0.29926824  0.30369872  0.27328418    -0.10700
C271        C  0.25739440  0.37030363  0.30819635     0.05700
H272        H  0.26714614  0.32983257  0.37399048     0.07700
H273        H  0.29356236  0.28374453  0.37526533     0.11100
H274        H  0.30762762  0.29640397  0.24452552     0.11400
H275        H  0.28341920  0.34435752  0.24423557     0.07700
C276        C  0.25409399  0.39003664  0.34389476    -0.11400
C277        C  0.23906047  0.41675593  0.34323266    -0.10700
C278        C  0.22725635  0.42496415  0.30663638    -0.01600
C279        C  0.23090193  0.40572887  0.27071133    -0.11800
C280        C  0.24552577  0.37860597  0.27159168    -0.10200
H281        H  0.26315283  0.38501311  0.37252957     0.07700
H282        H  0.23638760  0.43043843  0.37182079     0.11400
H283        H  0.22237046  0.41144189  0.24177232     0.11100
H284        H  0.24711195  0.36386770  0.24357243     0.07700
C285        C  0.27048741  0.40336625  0.72714316    -0.11400
C286        C  0.26307470  0.37142088  0.71738646     0.05700
C287        C  0.23974357  0.36592778  0.70725410    -0.10200
C288        C  0.22390677  0.39165631  0.70854813    -0.11800
C289        C  0.23123075  0.42339770  0.71913589    -0.01600
C290        C  0.25469602  0.42926665  0.72750038    -0.10700
C291        C  0.27926382  0.34353323  0.71983401     0.05700
H292        H  0.23362236  0.34149895  0.69982760     0.07700
H293        H  0.20584524  0.38675708  0.70179238     0.11100
H294        H  0.26060410  0.45360820  0.73590678     0.11400
H295        H  0.28843531  0.40815918  0.73486952     0.07700
C296        C  0.28088670  0.32064237  0.68708437    -0.11400
C297        C  0.29563078  0.29370619  0.69011467    -0.10700
C298        C  0.30870165  0.28867323  0.72637753    -0.01600
C299        C  0.30682208  0.31163829  0.75926729    -0.11800
C300        C  0.29246712  0.33890318  0.75582359    -0.10200
H301        H  0.27093639  0.32385309  0.65891561     0.07700
H302        H  0.29699131  0.27727492  0.66361670     0.11400
H303        H  0.31615788  0.30845257  0.78805180     0.11100
H304        H  0.29120846  0.35598158  0.78176203     0.07700
C305        C  0.29752434  0.11489192  0.74564225    -0.11400
C306        C  0.27391515  0.12006602  0.73730769     0.05700
C307        C  0.26655499  0.15217606  0.72921700    -0.10200
C308        C  0.28238846  0.17820492  0.72902168    -0.11800
C309        C  0.30596701  0.17281722  0.73696016    -0.01600
C310        C  0.31330706  0.14083892  0.74529424    -0.10700
C311        C  0.25723914  0.09200866  0.73628240     0.05700
H312        H  0.24860191  0.15719688  0.72214740     0.07700
H313        H  0.27612308  0.20255653  0.72284213     0.11100
H314        H  0.33140860  0.13566396  0.75089626     0.11400
H315        H  0.30388905  0.09075553  0.75267476     0.07700
C316        C  0.26418947  0.06094634  0.72166906    -0.11400
C317        C  0.24855741  0.03476976  0.71998671    -0.10700
C318        C  0.22543914  0.03883822  0.73259294    -0.01600
C319        C  0.21848172  0.06988637  0.74735012    -0.11800
C320        C  0.23416429  0.09600366  0.74936465    -0.10200
H321        H  0.28167336  0.05686802  0.71069584     0.07700
H322        H  0.25477073  0.01136509  0.70885846     0.11400
H323        H  0.20077451  0.07436905  0.75673174     0.11100
H324        H  0.22816077  0.11932309  0.76136808     0.07700
C325        C  0.33074654  0.20272497  0.47435567    -0.11400
C326        C  0.34562000  0.22352756  0.49732417     0.05700
C327        C  0.35957697  0.24573560  0.47529056    -0.10200
C328        C  0.35847255  0.24724366  0.43187335    -0.11800
C329        C  0.34295226  0.22727562  0.40963502    -0.01600
C330        C  0.32917047  0.20498448  0.43117760    -0.10700
C331        C  0.34596468  0.22268215  0.54387427     0.05700
H332        H  0.37097485  0.26262680  0.49143760     0.07700
H333        H  0.36925634  0.26465860  0.41573494     0.11100
H334        H  0.31743545  0.18882907  0.41446671     0.11400
H335        H  0.32030802  0.18443810  0.48951215     0.07700
C336        C  0.32613421  0.21325797  0.56621208    -0.11400
C337        C  0.32612870  0.21295566  0.60960571    -0.10700
C338        C  0.34564212  0.22327434  0.63239389    -0.01600
C339        C  0.36556001  0.23260351  0.61014800    -0.11800
C340        C  0.36582105  0.23185848  0.56661251    -0.10200
H341        H  0.31026483  0.20657696  0.55040621     0.07700
H342        H  0.31062937  0.20450349  0.62488607     0.11400
H343        H  0.38095632  0.24111128  0.62604937     0.11100
H344        H  0.38166974  0.23860147  0.55096018     0.07700
C345        C  0.45036643  0.21791108  0.87758366    -0.11400
C346        C  0.43347344  0.24208703  0.87246346     0.05700
C347        C  0.43381455  0.26987743  0.89860276    -0.10200
C348        C  0.45065651  0.27332439  0.92959563    -0.11800
C349        C  0.46716772  0.24869357  0.93554907    -0.01600
C350        C  0.46692213  0.22103038  0.90911133    -0.10700
C351        C  0.41495035  0.23780864  0.84107262     0.05700
H352        H  0.42099311  0.28891654  0.89501008     0.07700
H353        H  0.45046378  0.29490789  0.94945131     0.11100
H354        H  0.47955427  0.20176334  0.91281756     0.11400
H355        H  0.45035781  0.19622662  0.85789441     0.07700
C356        C  0.42024102  0.23074769  0.79931250    -0.11400
C357        C  0.40257242  0.22767425  0.76964287    -0.10700
C358        C  0.37914384  0.23117485  0.78136014    -0.01600
C359        C  0.37409521  0.23700788  0.82370272    -0.11800
C360        C  0.39172322  0.24067805  0.85301556    -0.10200
H361        H  0.43810381  0.22823859  0.78951768     0.07700
H362        H  0.40762709  0.22260795  0.73796304     0.11400
H363        H  0.35630980  0.23937488  0.83400558     0.11100
H364        H  0.38720762  0.24557988  0.88519189     0.07700
C365        C  0.44372181  0.21171454  0.16151850    -0.11400
C366        C  0.43086947  0.23880362  0.17560667     0.05700
C367        C  0.43569904  0.26969325  0.15904752    -0.10200
C368        C  0.45285266  0.27330570  0.12875999    -0.11800
C369        C  0.46544816  0.24609142  0.11430484    -0.01600
C370        C  0.46077626  0.21529704  0.13113537    -0.10700
C371        C  0.41201838  0.23460647  0.20646832     0.05700
H372        H  0.42588368  0.29094339  0.16884452     0.07700
H373        H  0.45605413  0.29735411  0.11629654     0.11100
H374        H  0.47033993  0.19393830  0.12089378     0.11400
H375        H  0.44065378  0.18768884  0.17413983     0.07700
C376        C  0.39717119  0.20748423  0.20366812    -0.11400
C377        C  0.37879542  0.20392740  0.23143442    -0.10700
C378        C  0.37469995  0.22752537  0.26293632    -0.01600
C379        C  0.38999596  0.25431166  0.26615253    -0.11800
C380        C  0.40835854  0.25786660  0.23826116    -0.10200
H381        H  0.39932943  0.18937954  0.17911720     0.07700
H382        H  0.36775689  0.18298074  0.22674117     0.11400
H383        H  0.38737483  0.27296053  0.28989046     0.11100
H384        H  0.41968721  0.27887317  0.24156277     0.07700
C385        C  0.75413042  0.36156963  0.35361474    -0.11400
C386        C  0.76551605  0.37155324  0.31732598     0.05700
C387        C  0.76071814  0.35524867  0.27955792    -0.10200
C388        C  0.74429597  0.33009034  0.27787086    -0.11800
C389        C  0.73279950  0.32032728  0.31409430    -0.01600
C390        C  0.73804313  0.33596979  0.35203047    -0.10700
C391        C  0.78170728  0.39968929  0.31837208     0.05700
H392        H  0.76917570  0.36267370  0.25112515     0.07700
H393        H  0.74042962  0.31837830  0.24828271     0.11100
H394        H  0.72902579  0.32929071  0.38015030     0.11400
H395        H  0.75757768  0.37374628  0.38306903     0.07700
C396        C  0.77494152  0.42969382  0.33611143    -0.11400
C397        C  0.78967380  0.45687866  0.33476617    -0.10700
C398        C  0.81180283  0.45451285  0.31650845    -0.01600
C399        C  0.81866397  0.42395152  0.29981199    -0.11800
C400        C  0.80369919  0.39707091  0.30026360    -0.10200
H401        H  0.75792507  0.43236864  0.34990899     0.07700
H402        H  0.78331234  0.47975748  0.34731815     0.11400
H403        H  0.83569634  0.42034791  0.28665229     0.11100
H404        H  0.80939571  0.37405619  0.28679628     0.07700
C405        C  0.78228324  0.11407379  0.27120607    -0.11400
C406        C  0.77019832  0.12232235  0.30784179     0.05700
C407        C  0.77354631  0.10306147  0.34319703    -0.10200
C408        C  0.78904346  0.07686159  0.34227190    -0.11800
C409        C  0.80133567  0.06889629  0.30576575    -0.01600
C410        C  0.79745144  0.08756301  0.27007498    -0.10700
C411        C  0.75448570  0.15115681  0.30919270     0.05700
H412        H  0.76426478  0.10827475  0.37176503     0.07700
H413        H  0.79177962  0.06357646  0.37065928     0.11100
H414        H  0.80622936  0.08191544  0.24113415     0.11400
H415        H  0.78044083  0.12849871  0.24347374     0.07700
C416        C  0.75251550  0.17070032  0.34536932    -0.11400
C417        C  0.73794221  0.19796681  0.34633367    -0.10700
C418        C  0.72522962  0.20672116  0.31094819    -0.01600
C419        C  0.72737917  0.18728301  0.27470040    -0.11800
C420        C  0.74158366  0.15974012  0.27398739    -0.10200
H421        H  0.76242681  0.16518956  0.37293015     0.07700
H422        H  0.73650798  0.21181737  0.37508446     0.11400
H423        H  0.71829792  0.19338459  0.24647840     0.11100
H424        H  0.74232424  0.14508695  0.24575039     0.07700
C425        C  0.61965342  0.24581977  0.24154514    -0.11400
C426        C  0.61736194  0.26800159  0.20887878     0.05700
C427        C  0.63457934  0.29184943  0.20366334    -0.10200
C428        C  0.65371592  0.29344955  0.23014603    -0.11800
C429        C  0.65621735  0.27123476  0.26296426    -0.01600
C430        C  0.63879079  0.24744578  0.26819229    -0.10700
C431        C  0.59762606  0.26581303  0.17923741     0.05700
H432        H  0.63360195  0.30883203  0.17822924     0.07700
H433        H  0.66654354  0.31180230  0.22352564     0.11100
H434        H  0.64017596  0.22977342  0.29279621     0.11400
H435        H  0.60661798  0.22721029  0.24656075     0.07700
C436        C  0.58993898  0.23533924  0.16394041    -0.11400
C437        C  0.57263602  0.23347858  0.13356992    -0.10700
C438        C  0.56259034  0.26204606  0.11784536    -0.01600
C439        C  0.56975274  0.29245568  0.13407097    -0.11800
C440        C  0.58707596  0.29431593  0.16439264    -0.10200
H441        H  0.59782684  0.21294310  0.17444998     0.07700
H442        H  0.56741506  0.20964793  0.12188457     0.11400
H443        H  0.56219058  0.31488588  0.12293172     0.11100
H444        H  0.59233811  0.31813035  0.17606728     0.07700
C445        C  0.76002587  0.19209115  0.71518557    -0.11400
C446        C  0.75297426  0.16125556  0.72910797     0.05700
C447        C  0.73034027  0.15738846  0.74400764    -0.10200
C448        C  0.71495246  0.18364387  0.74460102    -0.11800
C449        C  0.72190029  0.21476141  0.73101377    -0.01600
C450        C  0.74472265  0.21858976  0.71641558    -0.10700
C451        C  0.76903996  0.13303533  0.72813042     0.05700
H452        H  0.72436204  0.13375849  0.75439512     0.07700
H453        H  0.69745811  0.17910065  0.75499755     0.11100
H454        H  0.75102853  0.24204665  0.70634730     0.11400
H455        H  0.77750133  0.19580099  0.70396906     0.07700
C456        C  0.78222733  0.12586303  0.69241575    -0.11400
C457        C  0.79712793  0.09894473  0.69152112    -0.10700
C458        C  0.79927538  0.07909244  0.72646504    -0.01600
C459        C  0.78624517  0.08625485  0.76220193    -0.11800
C460        C  0.77108182  0.11281579  0.76291370    -0.10200
H461        H  0.78090897  0.14100087  0.66515964     0.07700
H462        H  0.80754794  0.09429146  0.66411611     0.11400
H463        H  0.78799097  0.07141897  0.78965998     0.11100
H464        H  0.76127991  0.11798308  0.79094823     0.07700
C465        C  0.76222901  0.35037957  0.71598182    -0.11400
C466        C  0.75594223  0.38211075  0.72884426     0.05700
C467        C  0.73326697  0.38749251  0.74314612    -0.10200
C468        C  0.71722686  0.36196555  0.74410500    -0.11800
C469        C  0.72349008  0.33011938  0.73146719    -0.01600
C470        C  0.74625419  0.32469356  0.71751555    -0.10700
C471        C  0.77293280  0.40948463  0.72788879     0.05700
H472        H  0.72788820  0.41145718  0.75396851     0.07700
H473        H  0.69981321  0.36753470  0.75426813     0.11100
H474        H  0.75198519  0.30061689  0.70811426     0.11400
H475        H  0.77947671  0.34537845  0.70438021     0.07700
C476        C  0.79629822  0.40429910  0.73798716    -0.11400
C477        C  0.81202171  0.43030542  0.73868076    -0.10700
C478        C  0.80474422  0.46220777  0.72966727    -0.01600
C479        C  0.78147248  0.46730978  0.71898618    -0.11800
C480        C  0.76580326  0.44125538  0.71787373    -0.10200
H481        H  0.80238453  0.38025897  0.74622746     0.07700
H482        H  0.82990994  0.42532153  0.74627202     0.11400
H483        H  0.77512562  0.49152440  0.71240270     0.11100
H484        H  0.74803323  0.44607953  0.70923584     0.07700
C485        C  0.63853681  0.27024526  0.85485672    -0.11400
C486        C  0.61538937  0.27455290  0.84338131     0.05700
C487        C  0.61004041  0.28054043  0.80164481    -0.10200
C488        C  0.62755647  0.28067679  0.77142334    -0.11800
C489        C  0.65084586  0.27521466  0.78260003    -0.01600
C490        C  0.65603310  0.27112824  0.82502109    -0.10700
C491        C  0.59698661  0.27142098  0.87501336     0.05700
H492        H  0.59223633  0.28425247  0.79229816     0.07700
H493        H  0.62258355  0.28528727  0.73974762     0.11100
H494        H  0.67377277  0.26785666  0.83501796     0.11400
H495        H  0.64306285  0.26609119  0.88702490     0.07700
C496        C  0.59543526  0.24278260  0.89832740    -0.11400
C497        C  0.57867945  0.23975266  0.92933608    -0.10700
C498        C  0.56340230  0.26557127  0.93818389    -0.01600
C499        C  0.56490840  0.29426780  0.91472292    -0.11800
C500        C  0.58144444  0.29703799  0.88307046    -0.10200
H501        H  0.60721393  0.22268612  0.89239822     0.07700
H502        H  0.57788107  0.21732371  0.94676849     0.11400
H503        H  0.55322626  0.31445705  0.92067799     0.11100
H504        H  0.58243594  0.31937372  0.86546391     0.07700
C505        C  0.66491831  0.26608778  0.47452493    -0.11400
C506        C  0.68454148  0.27261335  0.49894605     0.05700
C507        C  0.70568447  0.27884612  0.47911563    -0.10200
C508        C  0.70730972  0.27823003  0.43581113    -0.11800
C509        C  0.68784460  0.27109976  0.41090312    -0.01600
C510        C  0.66657129  0.26504858  0.43105332    -0.10700
C511        C  0.68340561  0.27176858  0.54499789     0.05700
H512        H  0.72104029  0.28435311  0.49724418     0.07700
H513        H  0.72397226  0.28361376  0.42243231     0.11100
H514        H  0.65118899  0.25877421  0.41356654     0.11400
H515        H  0.64844161  0.26084020  0.48911107     0.07700
C516        C  0.66597747  0.28843208  0.56717684    -0.11400
C517        C  0.66581781  0.28851649  0.61078932    -0.10700
C518        C  0.68299053  0.27171789  0.63289690    -0.01600
C519        C  0.69989852  0.25422311  0.61048266    -0.11800
C520        C  0.70019550  0.25443502  0.56712287    -0.10200
H521        H  0.65288044  0.30208506  0.55079331     0.07700
H522        H  0.65265611  0.30241846  0.62715240     0.11400
H523        H  0.71293517  0.24014221  0.62638915     0.11100
H524        H  0.71353421  0.24084189  0.55076857     0.07700
C525        C  0.67455347  0.77161252  0.76123270     0.85900
C526        C  0.69032969  0.80193979  0.76396513    -0.54300
C527        C  0.70874391  0.80136051  0.73722388     0.08800
C528        C  0.70990928  0.76970222  0.71066109     0.19800
C529        C  0.66787623  0.76885979  0.71494095    -0.55100
C530        C  0.68639131  0.76763252  0.68843431     0.08900
C531        C  0.69110419  0.74302005  0.76852789    -0.54600
C532        C  0.70946030  0.74125605  0.74166418     0.09500
H533        H  0.68778176  0.82202863  0.78552009     0.14000
H534        H  0.72453612  0.76928571  0.68855258    -0.00200
H535        H  0.65006469  0.76728993  0.70431984     0.14300
H536        H  0.68809325  0.72555714  0.79300788     0.14100
C537        C  0.67466951  0.75876281  0.30198992     0.85900
C538        C  0.69049986  0.72895884  0.29747170    -0.54300
C539        C  0.70972372  0.72970879  0.32219498     0.08800
C540        C  0.71122168  0.76084396  0.34977685     0.19800
C541        C  0.66906549  0.76090392  0.34888336    -0.55100
C542        C  0.68816608  0.76169745  0.37426534     0.08900
C543        C  0.69045825  0.78829481  0.29469122    -0.54600
C544        C  0.70961003  0.78991440  0.31963654     0.09500
H545        H  0.68634033  0.70859934  0.27679972     0.14000
H546        H  0.72683929  0.76136565  0.36950950    -0.00200
H547        H  0.65170781  0.76281259  0.36115240     0.14300
H548        H  0.68661981  0.80622243  0.27116858     0.14100
O549        O  0.53858936  0.72207238  0.07213450    -0.72400
O550        O  0.49394556  0.72131192  0.98500072    -0.72600
O551        O  0.54022421  0.72477620  0.98849749    -0.72400
O552        O  0.49209271  0.71842268  0.06847931    -0.72400
O553        O  0.49238349  0.77120116  0.07636915    -0.72400
O554        O  0.53579965  0.77743851  0.98802302    -0.72400
O555        O  0.48948413  0.77369570  0.99304918    -0.72400
O556        O  0.53880834  0.77511075  0.07131674    -0.72600
V557        V  0.51617150  0.72260730  0.02865710     1.35200
V558        V  0.51417001  0.77338842  0.03217156     1.35200
C559        C  0.54679110  0.74885295  0.08579983     0.76900
C560        C  0.48382653  0.74736018  0.97463318     0.76900
C561        C  0.54567395  0.75215915  0.97355861     0.76800
C562        C  0.48431786  0.74370558  0.08666901     0.76800
C563        C  0.35762277  0.73636958  0.75539210     0.85900
C564        C  0.34270208  0.70607933  0.76361568    -0.54300
C565        C  0.32337264  0.70356974  0.73946078     0.08800
C566        C  0.32055876  0.73225928  0.70939709     0.19800
C567        C  0.36267037  0.73459789  0.70807473    -0.55100
C568        C  0.34312601  0.73267913  0.68369606     0.08900
C569        C  0.34116859  0.76560913  0.76002041    -0.54600
C570        C  0.32167507  0.76380136  0.73606536     0.09500
H571        H  0.34728141  0.68802165  0.78660236     0.14000
H572        H  0.30459061  0.73026392  0.69088208    -0.00200
H573        H  0.37985575  0.73516657  0.69482359     0.14300
H574        H  0.34548316  0.78664473  0.77940483     0.14100
C575        C  0.35430394  0.73390471  0.29762946     0.85900
C576        C  0.33731477  0.76118232  0.28625826    -0.54300
C577        C  0.31787576  0.76231909  0.31035121     0.08800
C578        C  0.31682860  0.73537932  0.34313262     0.19800
C579        C  0.35890482  0.73905993  0.34467884    -0.55100
C580        C  0.33922389  0.73953691  0.36835039     0.08900
C581        C  0.33993305  0.70221223  0.29558005    -0.54600
C582        C  0.32022526  0.70312438  0.31893834     0.09500
H583        H  0.34092257  0.77898871  0.26235430     0.14000
H584        H  0.30087330  0.73593021  0.36244073    -0.00200
H585        H  0.37589239  0.74003086  0.35886930     0.14300
H586        H  0.34479513  0.68098429  0.27692031     0.14100
C587        C  0.85464747  0.52213893  0.75522556     0.85900
C588        C  0.83878085  0.99550831  0.75123623    -0.54300
C589        C  0.81993793  0.99335624  0.72570472     0.08800
C590        C  0.81948888  0.52054814  0.70422752     0.19800
C591        C  0.86141941  0.52389367  0.70899353    -0.55100
C592        C  0.84309609  0.52260556  0.68193467     0.08900
C593        C  0.83745828  0.55053210  0.76143336    -0.54600
C594        C  0.81919521  0.54972807  0.73474658     0.09500
H595        H  0.84318338  0.97684916  0.77353864     0.14000
H596        H  0.80438505  0.51986423  0.68315482    -0.00200
H597        H  0.87929232  0.52585708  0.69896883     0.14300
H598        H  0.83952878  0.57068069  0.78323127     0.14100
C599        C  0.85480135  0.01408369  0.28723860     0.85900
C600        C  0.84551367  0.54468720  0.29242856    -0.54300
C601        C  0.82664688  0.54375328  0.31815816     0.08800
C602        C  0.81838590  0.01308579  0.33525176     0.19800
C603        C  0.86046520  0.01595409  0.33421658    -0.55100
C604        C  0.84954480  0.51328338  0.36870116     0.08900
C605        C  0.84000360  0.98296167  0.28261989    -0.54600
C606        C  0.82088267  0.98225985  0.30760457     0.09500
H607        H  0.84904704  0.56473100  0.27161482     0.14000
H608        H  0.80284093  0.01266243  0.35522647    -0.00200
H609        H  0.87780176  0.01654251  0.34682514     0.14300
H610        H  0.84433573  0.96329987  0.26100012     0.14100
O611        O  0.03311038  0.97085701  0.05495463    -0.72400
O612        O  0.98846427  0.98030552  0.96916263    -0.72600
O613        O  0.03433209  0.97218086  0.97125518    -0.72400
O614        O  0.98690141  0.97890693  0.05261906    -0.72400
O615        O  0.99753617  0.53175703  0.05997780    -0.72400
O616        O  0.04276599  0.52357518  0.97397399    -0.72400
O617        O  0.99654169  0.53107747  0.97599555    -0.72400
O618        O  0.04367149  0.52437917  0.05762082    -0.72600
V619        V  0.01080262  0.97656937  0.01211458     1.35200
V620        V  0.02002704  0.52671494  0.01685303     1.35200
C621        C  0.04825810  0.49719173  0.07384324     0.76900
C622        C  0.98737914  0.50574895  0.96004446     0.76900
C623        C  0.04924027  0.49568385  0.96104433     0.76800
C624        C  0.98665277  0.50691747  0.07270571     0.76800
C625        C  0.17895086  0.47703088  0.74801655     0.85900
C626        C  0.19467817  0.50644090  0.75795809    -0.54300
C627        C  0.21357935  0.50940693  0.73257667     0.08800
C628        C  0.21029161  0.98253689  0.69787014     0.19800
C629        C  0.16812203  0.98167473  0.69877226    -0.55100
C630        C  0.19180579  0.48279202  0.67599677     0.08900
C631        C  0.18972405  0.94950864  0.74809360    -0.54600
C632        C  0.20885064  0.95123029  0.72348130     0.09500
H633        H  0.19098507  0.52329228  0.78344177     0.14000
H634        H  0.22591527  0.98298239  0.67801922    -0.00200
H635        H  0.15049111  0.98205769  0.68722595     0.14300
H636        H  0.18649215  0.92807095  0.76649700     0.14100
C637        C  0.17480931  0.48182391  0.29014658     0.85900
C638        C  0.18693941  0.95302043  0.27655875    -0.54300
C639        C  0.20593654  0.95161307  0.30195931     0.08800
C640        C  0.21156277  0.48171847  0.33740265     0.19800
C641        C  0.16940065  0.47978652  0.33715196    -0.55100
C642        C  0.18873133  0.48002880  0.36160044     0.08900
C643        C  0.18997697  0.51265244  0.28665900    -0.54600
C644        C  0.20923329  0.51234916  0.31099327     0.09500
H645        H  0.18357226  0.93563422  0.25153285     0.14000
H646        H  0.22711214  0.48244515  0.35763575    -0.00200
H647        H  0.15224358  0.47975464  0.35071050     0.14300
H648        H  0.18577414  0.53308536  0.26684823     0.14100
C649        C  0.20655166  0.49958541  0.56315616    -0.11400
C650        C  0.18832475  0.48392722  0.54162986     0.05700
C651        C  0.16554617  0.96949812  0.56229999    -0.10200
C652        C  0.16644196  0.97025618  0.60580397    -0.11800
C653        C  0.19011571  0.48413101  0.62980992    -0.01600
C654        C  0.20730751  0.49993302  0.60659594    -0.10700
C655        C  0.18773880  0.48322009  0.49515661     0.05700
H656        H  0.15003422  0.96017081  0.54746357     0.07700
H657        H  0.15190046  0.96033500  0.62267838     0.11100
H658        H  0.22143543  0.51266179  0.62188863     0.11400
H659        H  0.22058422  0.51114848  0.54656468     0.07700
C660        C  0.19728051  0.50908791  0.47222833    -0.11400
C661        C  0.19765345  0.50781583  0.42881838    -0.10700
C662        C  0.18787452  0.48121694  0.40734910    -0.01600
C663        C  0.17059263  0.95512701  0.42638698    -0.11800
C664        C  0.17112419  0.95562797  0.46998263    -0.10200
H665        H  0.20437531  0.53049984  0.48767738     0.07700
H666        H  0.20533232  0.52783836  0.41189645     0.11400
H667        H  0.16127313  0.93581813  0.41020012     0.11100
H668        H  0.16228693  0.93631630  0.48633644     0.07700
C669        C  0.13600982  0.45550212  0.83580916    -0.11400
C670        C  0.12018580  0.48143748  0.83371325     0.05700
C671        C  0.11707104  0.00768229  0.79674273    -0.10200
C672        C  0.13594629  0.00506331  0.76956186    -0.11800
C673        C  0.15770747  0.47654398  0.77657724    -0.01600
C674        C  0.15447830  0.45305232  0.80778553    -0.10700
C675        C  0.10153400  0.48516954  0.86556463     0.05700
H676        H  0.10492489  0.02752008  0.79283015     0.07700
H677        H  0.13808137  0.02327429  0.74575060     0.11100
H678        H  0.16647408  0.43335339  0.81237857     0.11400
H679        H  0.13468174  0.43765836  0.86024214     0.07700
C680        C  0.08350721  0.96090603  0.87471025    -0.11400
C681        C  0.06685594  0.96385086  0.90603090    -0.10700
C682        C  0.06722267  0.49216166  0.92822623    -0.01600
C683        C  0.07857511  0.51970799  0.91229160    -0.11800
C684        C  0.09553858  0.51625568  0.88140136    -0.10200
H685        H  0.08747793  0.93680476  0.86237383     0.07700
H686        H  0.05849939  0.94192999  0.91713749     0.11400
H687        H  0.07447974  0.54397427  0.92393129     0.11100
H688        H  0.10429132  0.53793415  0.87052817     0.07700
C689        C  0.08324402  0.95921136  0.15108946    -0.11400
C690        C  0.09945032  0.48991450  0.17010880     0.05700
C691        C  0.09871704  0.51745483  0.14459071    -0.10200
C692        C  0.08182192  0.52006510  0.11377856    -0.11800
C693        C  0.06558492  0.49489783  0.10742244    -0.01600
C694        C  0.06633863  0.96187167  0.12011618    -0.10700
C695        C  0.11824321  0.48647161  0.20095110     0.05700
H696        H  0.11130778  0.53691776  0.14845531     0.07700
H697        H  0.08176216  0.54147672  0.09436107     0.09900
H698        H  0.05695442  0.94017320  0.11027544     0.11400
H699        H  0.08674245  0.93556490  0.16439634     0.07700
C700        C  0.10982162  0.97340404  0.23560557    -0.11400
C701        C  0.12744563  0.97256087  0.26552027    -0.10700
C702        C  0.15451505  0.48220885  0.25975995    -0.01600
C703        C  0.15919644  0.48823586  0.21756125    -0.11800
C704        C  0.14130982  0.49084635  0.18872172    -0.10200
H705        H  0.09241464  0.96620806  0.24413161     0.07700
H706        H  0.12307825  0.96390751  0.29608099     0.11400
H707        H  0.17684348  0.49164504  0.20703206     0.11100
H708        H  0.14550829  0.49610767  0.15666825     0.07700
C709        C  0.95201244  0.53832813  0.16560508    -0.11400
C710        C  0.93484463  0.51413489  0.16916850     0.05700
C711        C  0.92918569  0.98646239  0.13433983    -0.10200
C712        C  0.94654821  0.98430308  0.10415692    -0.11800
C713        C  0.96877472  0.50970539  0.10572659    -0.01600
C714        C  0.96865920  0.53633614  0.13386169    -0.10700
C715        C  0.91665443  0.51643541  0.20180547     0.05700
H716        H  0.91601051  0.96760416  0.13528498     0.07700
H717        H  0.94627310  0.96398216  0.08222204     0.11100
H718        H  0.98162069  0.55540015  0.13163600     0.11400
H719        H  0.95229207  0.55902385  0.18695825     0.07700
C720        C  0.92246434  0.52092373  0.24389691    -0.11400
C721        C  0.90523695  0.52097472  0.27473846    -0.10700
C722        C  0.87481851  0.01481107  0.25608928    -0.01600
C723        C  0.86969219  0.01032517  0.21355247    -0.11800
C724        C  0.88720869  0.00979340  0.18363896    -0.10200
H725        H  0.94042273  0.52360635  0.25301783     0.07700
H726        H  0.91068834  0.52433950  0.30655407     0.11400
H727        H  0.85196169  0.00676124  0.20348225     0.11100
H728        H  0.88262022  0.00582801  0.15131237     0.07700
C729        C  0.91182227  0.49482207  0.80378630    -0.11400
C730        C  0.91430786  0.51626533  0.83797681     0.05700
C731        C  0.89378236  0.04421605  0.83907060    -0.10200
C732        C  0.87509193  0.04647361  0.81185142    -0.11800
C733        C  0.87555025  0.52113787  0.78428198    -0.01600
C734        C  0.89265292  0.49715127  0.77744462    -0.10700
C735        C  0.93411702  0.51343025  0.86714346     0.05700
H736        H  0.89351647  0.05880967  0.86740648     0.07700
H737        H  0.86120393  0.06252107  0.82112111     0.11100
H738        H  0.89111305  0.48007520  0.75155400     0.11400
H739        H  0.92473623  0.47630410  0.79729570     0.07700
C740        C  0.94205031  0.48262986  0.87957946    -0.11400
C741        C  0.95957214  0.48010585  0.90934516    -0.10700
C742        C  0.96954315  0.50832114  0.92726043    -0.01600
C743        C  0.95646252  0.04307368  0.91413853    -0.11800
C744        C  0.93962468  0.04650819  0.88336759    -0.10200
H745        H  0.93423008  0.46046658  0.86727181     0.07700
H746        H  0.96505149  0.45603926  0.91880347     0.11400
H747        H  0.96244487  0.06466490  0.93078719     0.11100
H748        H  0.93321289  0.07073449  0.87681344     0.07700
C749        C  0.82917844  0.52747330  0.56653977    -0.11400
C750        C  0.84958028  0.51566011  0.54821180     0.05700
C751        C  0.86237279  0.01376379  0.56303377    -0.10200
C752        C  0.86157280  0.01466185  0.60657970    -0.11800
C753        C  0.84572981  0.52140654  0.63568889    -0.01600
C754        C  0.82734019  0.53063520  0.60968931    -0.10700
C755        C  0.85116837  0.51230980  0.50249321     0.05700
H756        H  0.87758300  0.00402477  0.54757912     0.07700
H757        H  0.87620889  0.00530978  0.62365016     0.11100
H758        H  0.81145626  0.54046815  0.62223054     0.11400
H759        H  0.81468923  0.53459883  0.54731957     0.07700
C760        C  0.83419646  0.49468593  0.48049078    -0.11400
C761        C  0.83433360  0.49388150  0.43708649    -0.10700
C762        C  0.85119811  0.51120976  0.41476158    -0.01600
C763        C  0.86087084  0.03281430  0.42665759    -0.11800
C764        C  0.86142064  0.03472490  0.47016409    -0.10200
H765        H  0.82065816  0.48185521  0.49697681     0.07700
H766        H  0.82102962  0.47994187  0.42108269     0.11400
H767        H  0.87468155  0.04431840  0.40940907     0.11100
H768        H  0.87566856  0.04726295  0.48541461     0.07700
C769        C  0.29669924  0.61720625  0.32861552    -0.11400
C770        C  0.27287150  0.62178544  0.32136397     0.05700
C771        C  0.26485535  0.65383946  0.31482574    -0.10200
C772        C  0.28018251  0.68033587  0.31525308    -0.11800
C773        C  0.30391811  0.67532713  0.32101205    -0.01600
C774        C  0.31206629  0.64362114  0.32785278    -0.10700
C775        C  0.25659004  0.59332450  0.31966284     0.05700
H776        H  0.24681971  0.65855720  0.30824785     0.07700
H777        H  0.27360436  0.70464669  0.30964735     0.11100
H778        H  0.33033709  0.63935300  0.33300524     0.11400
H779        H  0.30358792  0.59324676  0.33502443     0.07700
C780        C  0.26420504  0.56221705  0.30608400    -0.11400
C781        C  0.24886109  0.53576675  0.30386712    -0.10700
C782        C  0.22548944  0.54007057  0.31389271    -0.01600
C783        C  0.21769647  0.57080133  0.32735962    -0.11800
C784        C  0.23312254  0.59704531  0.33080337    -0.10200
H785        H  0.28191650  0.55827207  0.29633099     0.07700
H786        H  0.25510027  0.51209880  0.29340567     0.11400
H787        H  0.19971495  0.57431128  0.33590137     0.11100
H788        H  0.22659211  0.62013881  0.34253977     0.07700
C789        C  0.27754892  0.82654516  0.26718838    -0.11400
C790        C  0.27031309  0.84274722  0.30369981     0.05700
C791        C  0.27824756  0.83175423  0.34228629    -0.10200
C792        C  0.29314842  0.80494338  0.34437426    -0.11800
C793        C  0.30079261  0.78916459  0.30786260    -0.01600
C794        C  0.29291544  0.80021500  0.26922042    -0.10700
C795        C  0.25436403  0.87091864  0.30168929     0.05700
H796        H  0.27276224  0.84381537  0.37081408     0.07700
H797        H  0.29921316  0.79709976  0.37448086     0.11100
H798        H  0.29858098  0.78837561  0.24066375     0.11400
H799        H  0.27161675  0.83466400  0.23712135     0.07700
C800        C  0.26039384  0.90104829  0.31999431    -0.11400
C801        C  0.24506860  0.92747438  0.31889745    -0.10700
C802        C  0.22306049  0.92412377  0.30044047    -0.01600
C803        C  0.21722167  0.89369081  0.28201765    -0.11800
C804        C  0.23280500  0.86760177  0.28219535    -0.10200
H805        H  0.27708670  0.90418975  0.33484310     0.07700
H806        H  0.25070666  0.95042648  0.33245999     0.11400
H807        H  0.20040865  0.88941849  0.26829811     0.11100
H808        H  0.22774245  0.84444950  0.26817705     0.07700
C809        C  0.26532432  0.90463860  0.72706042    -0.11400
C810        C  0.25763851  0.87222368  0.72208010     0.05700
C811        C  0.23401877  0.86611051  0.71537218    -0.10200
C812        C  0.21822529  0.89190555  0.71512381    -0.11800
C813        C  0.22584523  0.92428285  0.72074402    -0.01600
C814        C  0.24955273  0.93052526  0.72591140    -0.10700
C815        C  0.27401955  0.84468457  0.72544109     0.05700
H816        H  0.22772947  0.84129854  0.71160255     0.07700
H817        H  0.19998662  0.88658430  0.71085144     0.11100
H818        H  0.25574442  0.95525846  0.73064573     0.11400
H819        H  0.28351190  0.90984929  0.73211886     0.07700
C820        C  0.27537122  0.82078001  0.69391367    -0.11400
C821        C  0.29076903  0.79463628  0.69730779    -0.10700
C822        C  0.30470909  0.79126374  0.73294435    -0.01600
C823        C  0.30288996  0.81512986  0.76481635    -0.11800
C824        C  0.28796556  0.84173204  0.76081444    -0.10200
H825        H  0.26482075  0.82272989  0.66623052     0.07700
H826        H  0.29196416  0.77769818  0.67134823     0.11400
H827        H  0.31281782  0.81333923  0.79316689     0.11100
H828        H  0.28694033  0.85970644  0.78578442     0.07700
C829        C  0.30127509  0.61611154  0.74753019    -0.11400
C830        C  0.27747868  0.61979756  0.73966298     0.05700
C831        C  0.26897994  0.65134795  0.73190337    -0.10200
C832        C  0.28378848  0.67844753  0.73224577    -0.11800
C833        C  0.30752265  0.67476016  0.74018009    -0.01600
C834        C  0.31610122  0.64323066  0.74772912    -0.10700
C835        C  0.26153207  0.59101671  0.73938075     0.05700
H836        H  0.25084972  0.65513677  0.72502060     0.07700
H837        H  0.27653054  0.70234327  0.72670289     0.11100
H838        H  0.33437716  0.63937470  0.75323691     0.11400
H839        H  0.30844499  0.59230611  0.75397250     0.07700
C840        C  0.26864709  0.56049797  0.72328347    -0.11400
C841        C  0.25328881  0.53395262  0.72168649    -0.10700
C842        C  0.23036802  0.53722078  0.73593690    -0.01600
C843        C  0.22341730  0.56765037  0.75260417    -0.11800
C844        C  0.23879738  0.59403622  0.75453231    -0.10200
H845        H  0.28596176  0.55724633  0.71105972     0.07700
H846        H  0.25952684  0.51091719  0.70928055     0.11400
H847        H  0.20589612  0.57153743  0.76340036     0.11100
H848        H  0.23278698  0.61691997  0.76788439     0.07700
C849        C  0.32748008  0.71579226  0.47933618    -0.11400
C850        C  0.34064201  0.73880053  0.50232599     0.05700
C851        C  0.35309124  0.76268075  0.48024738    -0.10200
C852        C  0.35278375  0.76296585  0.43668783    -0.11800
C853        C  0.33950109  0.74003499  0.41433274    -0.01600
C854        C  0.32666000  0.71674774  0.43600566    -0.10700
C855        C  0.34152019  0.73740552  0.54884402     0.05700
H856        H  0.36299731  0.78134675  0.49644783     0.07700
H857        H  0.36266715  0.78134275  0.42043723     0.11100
H858        H  0.31653903  0.69852449  0.41929301     0.11400
H859        H  0.31816621  0.69636114  0.49451957     0.07700
C860        C  0.32288556  0.72431651  0.57140610    -0.11400
C861        C  0.32394351  0.72153046  0.61454600    -0.10700
C862        C  0.34320531  0.73314387  0.63709841    -0.01600
C863        C  0.36180881  0.74658444  0.61471421    -0.11800
C864        C  0.36109317  0.74832316  0.57123301    -0.10200
H865        H  0.30722640  0.71622900  0.55595643     0.07700
H866        H  0.30948726  0.70997120  0.62978531     0.11400
H867        H  0.37688882  0.75624221  0.63057975     0.11100
H868        H  0.37606062  0.75800142  0.55532325     0.07700
C869        C  0.44953450  0.72223096  0.87899154    -0.11400
C870        C  0.43200893  0.74593962  0.87842153     0.05700
C871        C  0.43178023  0.77041575  0.90954424    -0.10200
C872        C  0.44879828  0.77118762  0.94054407    -0.11800
C873        C  0.46603317  0.74703659  0.94156126    -0.01600
C874        C  0.46622611  0.72257008  0.91049506    -0.10700
C875        C  0.41352036  0.74429709  0.84640494     0.05700
H876        H  0.41847458  0.78903623  0.90972613     0.07700
H877        H  0.44825295  0.79031689  0.96413302     0.11100
H878        H  0.47942037  0.70379940  0.91039132     0.11400
H879        H  0.44998351  0.70296489  0.85558099     0.07700
C880        C  0.41892086  0.73986579  0.80408575    -0.11400
C881        C  0.40132839  0.73747084  0.77412991    -0.10700
C882        C  0.37784652  0.73903591  0.78599468    -0.01600
C883        C  0.37268295  0.74307115  0.82863484    -0.11800
C884        C  0.39021711  0.74604031  0.85830033    -0.10200
H885        H  0.43681714  0.73842946  0.79416371     0.07700
H886        H  0.40642812  0.73401215  0.74212865     0.11400
H887        H  0.35485011  0.74403546  0.83902939     0.11100
H888        H  0.38554315  0.74897587  0.89075660     0.07700
C889        C  0.43565940  0.71005327  0.15254588    -0.11400
C890        C  0.43100390  0.73651289  0.17950492     0.05700
C891        C  0.44414279  0.76526349  0.17601614    -0.10200
C892        C  0.46143184  0.76765979  0.14575975    -0.11800
C893        C  0.46615917  0.74115624  0.11887552    -0.01600
C894        C  0.45319719  0.71224922  0.12273182    -0.10700
C895        C  0.41203689  0.73454370  0.21037972     0.05700
H896        H  0.44069894  0.78611086  0.19615616     0.07700
H897        H  0.47115514  0.79023813  0.14348651     0.11100
H898        H  0.45640381  0.69148664  0.10233203     0.11400
H899        H  0.42578957  0.68758891  0.15473587     0.07700
C900        C  0.39002222  0.72361883  0.19818565    -0.11400
C901        C  0.37175498  0.72344661  0.22661984    -0.10700
C902        C  0.37512846  0.73320591  0.26838542    -0.01600
C903        C  0.39736240  0.74397310  0.28049730    -0.11800
C904        C  0.41554503  0.74471247  0.25174918    -0.10200
H905        H  0.38677245  0.71614757  0.16627349     0.07700
H906        H  0.35478869  0.71587367  0.21583034     0.11400
H907        H  0.40085091  0.75292873  0.31156145     0.11100
H908        H  0.43239359  0.75338833  0.26180622     0.07700
C909        C  0.73458654  0.87494748  0.30234724    -0.11400
C910        C  0.75759698  0.87161052  0.31566828     0.05700
C911        C  0.76475711  0.84105769  0.33058709    -0.10200
C912        C  0.74934407  0.81455021  0.33180014    -0.11800
C913        C  0.72629057  0.81797849  0.31853075    -0.01600
C914        C  0.71914429  0.84872568  0.30417128    -0.10700
C915        C  0.77391569  0.89991869  0.31379253     0.05700
H916        H  0.78226264  0.83761702  0.34166044     0.07700
H917        H  0.75570046  0.79135595  0.34262439     0.11100
H918        H  0.70147809  0.85294887  0.29461775     0.11400
H919        H  0.72844230  0.89783221  0.29006386     0.07700
C920        C  0.79742617  0.89523852  0.30405309    -0.11400
C921        C  0.81260637  0.92185566  0.30187440    -0.10700
C922        C  0.80465973  0.95391232  0.30909978    -0.01600
C923        C  0.78116626  0.95864196  0.31859788    -0.11800
C924        C  0.76603084  0.93202371  0.32113831    -0.10200
H925        H  0.80411116  0.87100081  0.29761134     0.07700
H926        H  0.83065294  0.91718375  0.29505907     0.11400
H927        H  0.77431343  0.98295981  0.32369727     0.11100
H928        H  0.74814841  0.93667112  0.32928480     0.07700
C929        C  0.78885396  0.61530238  0.28584433    -0.11400
C930        C  0.77593207  0.62210045  0.32202055     0.05700
C931        C  0.77962136  0.60247347  0.35702579    -0.10200
C932        C  0.79589021  0.57700758  0.35587206    -0.11800
C933        C  0.80879134  0.57030836  0.31957107    -0.01600
C934        C  0.80481710  0.58971026  0.28452325    -0.10700
C935        C  0.75877387  0.64950648  0.32274900     0.05700
H936        H  0.76984325  0.60662946  0.38533259     0.07700
H937        H  0.79858283  0.56307948  0.38376967     0.11100
H938        H  0.81395595  0.58515136  0.25565801     0.11400
H939        H  0.78690371  0.63005401  0.25841520     0.07700
C940        C  0.75507300  0.66871768  0.35884009    -0.11400
C941        C  0.73933394  0.69482892  0.35873825    -0.10700
C942        C  0.72694825  0.70246747  0.32251541    -0.01600
C943        C  0.73071350  0.68329660  0.28651785    -0.11800
C944        C  0.74619969  0.65713021  0.28672314    -0.10200
H945        H  0.76456135  0.66389007  0.38710237     0.07700
H946        H  0.73666268  0.70865375  0.38724727     0.11400
H947        H  0.72181292  0.68858205  0.25779579     0.11100
H948        H  0.74814780  0.64269905  0.25849499     0.07700
C949        C  0.61359721  0.75084553  0.25308781    -0.11400
C950        C  0.61884950  0.75323279  0.21066250     0.05700
C951        C  0.64194749  0.75719487  0.19850105    -0.10200
C952        C  0.65954788  0.75858951  0.22823820    -0.11800
C953        C  0.65451285  0.75707622  0.27109702    -0.01600
C954        C  0.63117155  0.75295466  0.28305685    -0.10700
C955        C  0.60030618  0.75193525  0.17897360     0.05700
H956        H  0.64638802  0.75881084  0.16585204     0.07700
H957        H  0.67727405  0.76106757  0.21773167     0.11100
H958        H  0.62616128  0.75066977  0.31518178     0.11400
H959        H  0.59582409  0.74767985  0.26302641     0.07700
C960        C  0.58632466  0.72403073  0.17424765    -0.11400
C961        C  0.56912265  0.72273278  0.14353864    -0.10700
C962        C  0.56526994  0.74965753  0.11775089    -0.01600
C963        C  0.57920544  0.77763408  0.12285815    -0.11800
C964        C  0.59672673  0.77860643  0.15284670    -0.10200
H965        H  0.58893988  0.70312046  0.19398357     0.07700
H966        H  0.55863728  0.70088462  0.14032961     0.11400
H967        H  0.57671884  0.79868287  0.10331808     0.11100
H968        H  0.60735466  0.80033251  0.15601050     0.07700
C969        C  0.76251289  0.68848897  0.71899100    -0.11400
C970        C  0.75596674  0.65859829  0.73643153     0.05700
C971        C  0.73424734  0.65597238  0.75545148    -0.10200
C972        C  0.71926424  0.68261250  0.75697412    -0.11800
C973        C  0.72580822  0.71296672  0.74033065    -0.01600
C974        C  0.74768279  0.71548036  0.72126343    -0.10700
C975        C  0.77175885  0.63018464  0.73549680     0.05700
H976        H  0.72867066  0.63300145  0.76855933     0.07700
H977        H  0.70238459  0.67889499  0.77058800     0.11100
H978        H  0.75365578  0.73829859  0.70850886     0.11400
H979        H  0.77929835  0.69113354  0.70442178     0.07700
C980        C  0.78256454  0.62016139  0.69832990    -0.11400
C981        C  0.79731271  0.59308470  0.69771439    -0.10700
C982        C  0.80177710  0.57607090  0.73437459    -0.01600
C983        C  0.79099421  0.58605932  0.77150707    -0.11800
C984        C  0.77594668  0.61270258  0.77199917    -0.10200
H985        H  0.77950120  0.63320417  0.66977187     0.07700
H986        H  0.80584437  0.58614832  0.66899621     0.11400
H987        H  0.79436817  0.57332699  0.80018702     0.11100
H988        H  0.76792481  0.62009708  0.80107324     0.07700
C989        C  0.76347080  0.85090187  0.71610293    -0.11400
C990        C  0.75668340  0.88264529  0.72825547     0.05700
C991        C  0.73398079  0.88735999  0.74277166    -0.10200
C992        C  0.71847995  0.86125297  0.74490155    -0.11800
C993        C  0.72532959  0.82932339  0.73363831    -0.01600
C994        C  0.74804065  0.82456199  0.71901309    -0.10700
C995        C  0.77312008  0.91075974  0.72630806     0.05700
H996        H  0.72814295  0.91125704  0.75302639     0.07700
H997        H  0.70103472  0.86644003  0.75517736     0.11100
H998        H  0.75417529  0.80046688  0.71038568     0.11400
H999        H  0.78070004  0.84635686  0.70417620     0.07700
C1000       C  0.79677771  0.90661545  0.73504239    -0.11400
C1001       C  0.81198311  0.93325874  0.73443780    -0.10700
C1002       C  0.80390213  0.96479354  0.72543632    -0.01600
C1003       C  0.78032404  0.96891871  0.71648296    -0.11800
C1004       C  0.76516755  0.94225072  0.71666408    -0.10200
H1005       H  0.80353001  0.88289999  0.74310669     0.07700
H1006       H  0.83011228  0.92904666  0.74088731     0.11400
H1007       H  0.77339208  0.99284636  0.71006142     0.11100
H1008       H  0.74717104  0.94639616  0.70909325     0.07700
C1009       C  0.62932227  0.79233215  0.84611114    -0.11400
C1010       C  0.61587962  0.76373752  0.84621508     0.05700
C1011       C  0.62110455  0.73867205  0.81751103    -0.10200
C1012       C  0.63961259  0.74200677  0.78981105    -0.11800
C1013       C  0.65357770  0.77031377  0.79027459    -0.01600
C1014       C  0.64782923  0.79567061  0.81856771    -0.10700
C1015       C  0.59693536  0.76001976  0.87705542     0.05700
H1016       H  0.61086275  0.71647122  0.81643817     0.07700
H1017       H  0.64334613  0.72210928  0.76830332     0.11100
H1018       H  0.65739947  0.81824433  0.82047294     0.11400
H1019       H  0.62588606  0.81197065  0.86814520     0.07700
C1020       C  0.59369790  0.73034649  0.89781228    -0.11400
C1021       C  0.57687480  0.72764644  0.92888984    -0.10700
C1022       C  0.56303212  0.75459333  0.93994491    -0.01600
C1023       C  0.56592000  0.78401052  0.91858020    -0.11800
C1024       C  0.58262565  0.78665381  0.88739957    -0.10200
H1025       H  0.60460766  0.70950454  0.89086195     0.07700
H1026       H  0.57500818  0.70463289  0.94481415     0.11400
H1027       H  0.55528596  0.80504718  0.92601048     0.11100
H1028       H  0.58441120  0.80965842  0.87143655     0.07700
C1029       C  0.66557961  0.75266643  0.48521337    -0.11400
C1030       C  0.68459349  0.76329867  0.50880052     0.05700
C1031       C  0.70453569  0.77422690  0.48828722    -0.10200
C1032       C  0.70547254  0.77452335  0.44484003    -0.11800
C1033       C  0.68670189  0.76301132  0.42079755    -0.01600
C1034       C  0.66670242  0.75212339  0.44175347    -0.10700
C1035       C  0.68387713  0.76260352  0.55475068     0.05700
H1036       H  0.71931389  0.78293211  0.50598358     0.07700
H1037       H  0.72091904  0.78413279  0.43045060     0.11100
H1038       H  0.65199067  0.74242350  0.42486555     0.11400
H1039       H  0.65007440  0.74392559  0.50047794     0.07700
C1040       C  0.66634012  0.77892914  0.57698748    -0.11400
C1041       C  0.66667270  0.77990167  0.62054870    -0.10700
C1042       C  0.68444492  0.76428642  0.64248652    -0.01600
C1043       C  0.70131416  0.74668814  0.62004833    -0.11800
C1044       C  0.70115375  0.74611529  0.57664670    -0.10200
H1045       H  0.65285016  0.79180641  0.56061021     0.07700
H1046       H  0.65351310  0.79378429  0.63695439     0.11400
H1047       H  0.71479894  0.73349086  0.63599178     0.11100
H1048       H  0.71458453  0.73285766  0.56007234     0.07700
loop_ 
_geom_bond_atom_site_label_1 
_geom_bond_atom_site_label_2 
_geom_bond_distance 
_geom_bond_site_symmetry_2 
_ccdc_geom_bond_type 
C1            C2   1.531       .  S
C1            C7   1.538       .  S
C1            C5   1.547       .  S
C1          C489   1.529       .  S
C2            H9   1.085       .  S
C2            C3   1.367       .  D
C3            C4   1.543       .  S
C3          C469   1.493       .  S
C4            C8   1.543       .  S
C4            C6   1.539       .  S
C4           H10   1.104       .  S
C5           H11   1.082       .  S
C5            C6   1.369       .  D
C6          C518   1.489       .  S
C7           H12   1.084       .  S
C7            C8   1.368       .  D
C8          C449   1.497       .  S
C13          C14   1.532       .  S
C13          C19   1.545       .  S
C13          C17   1.540       .  S
C13         C429   1.532       .  S
C14          H21   1.085       .  S
C14          C15   1.367       .  D
C15          C16   1.544       .  S
C15         C418   1.493       .  S
C16          C20   1.534       .  S
C16          C18   1.547       .  S
C16          H22   1.104       .  S
C17          H23   1.084       .  S
C17          C18   1.373       .  D
C18         C509   1.501       .  S
C19          H24   1.082       .  S
C19          C20   1.363       .  D
C20         C389   1.480       .  S
O25          V33   1.897       .  S
O25          C35   1.264       .  A
O26          V33   1.898   1_556  S
O26          C36   1.264       .  A
O27          V33   1.898   1_556  S
O27          C37   1.265       .  A
O28          V33   1.899       .  S
O28          C38   1.265       .  A
O29          V34   1.898       .  S
O29          C38   1.264       .  A
O30          V34   1.901   1_556  S
O30          C37   1.265       .  A
O31          V34   1.904   1_556  S
O31          C36   1.266       .  A
O32          V34   1.907       .  S
O32          C35   1.267       .  A
V33          V34   2.086       .  T
C35         C438   1.483       .  S
C36         C349   1.479       .  S
C37         C498   1.479       .  S
C38         C369   1.478       .  S
C39          C40   1.534       .  S
C39          C45   1.535       .  S
C39          C43   1.546       .  S
C39         C358   1.529       .  S
C40          H47   1.086       .  S
C40          C41   1.365       .  D
C41          C42   1.542       .  S
C41         C309   1.492       .  S
C42          C46   1.542       .  S
C42          C44   1.546       .  S
C42          H48   1.103       .  S
C43          H49   1.079       .  S
C43          C44   1.374       .  D
C44         C338   1.499       .  S
C45          H50   1.085       .  S
C45          C46   1.365       .  D
C46         C298   1.494       .  S
C51          C52   1.533       .  S
C51          C57   1.545       .  S
C51          C55   1.539       .  S
C51         C378   1.527       .  S
C52          H59   1.085       .  S
C52          C53   1.366       .  D
C53          C54   1.543       .  S
C53         C269   1.490       .  S
C54          C58   1.532       .  S
C54          C56   1.540       .  S
C54          H60   1.110       .  S
C55          H61   1.086       .  S
C55          C56   1.367       .  D
C56         C329   1.478       .  S
C57          H62   1.081       .  S
C57          C58   1.363       .  D
C58         C249   1.476       .  S
C63          C69   1.542       .  S
C63          C67   1.543       .  S
C63         C588   1.533   1_545  S
C63         C209   1.527       .  S
C64         C587   1.535       .  S
C64          H71   1.086       .  S
C64          C65   1.367       .  D
C65         C590   1.542       .  S
C65         C478   1.489       .  S
C66          C70   1.534       .  S
C66          C68   1.543       .  S
C66         C589   1.543   1_545  S
C66          H72   1.106       .  S
C67          H73   1.085       .  S
C67          C68   1.372       .  D
C68         C229   1.493       .  S
C69          H74   1.082       .  S
C69          C70   1.359       .  D
C70         C458   1.475       .  S
C75          C81   1.538       .  S
C75          C79   1.547       .  S
C75         C600   1.533       .  S
C75         C198   1.535       .  S
C76         C599   1.533       .  S
C76          H83   1.085       .  S
C76          C77   1.366       .  D
C77         C602   1.540       .  S
C77         C409   1.491       .  S
C78          C82   1.544       .  S
C78         C601   1.545       .  S
C78         C604   1.540       .  S
C78          H84   1.103       .  S
C79          H85   1.082       .  S
C79         C604   1.370       .  D
C80         C602   1.541       .  S
C80         C603   1.372       .  D
C80         C238   1.493       .  S
C81          H86   1.084       .  S
C81          C82   1.370       .  D
C82         C398   1.501       .  S
O87          V95   1.901       .  S
O87         C621   1.265       .  A
O88          V95   1.899   1_656  S
O88         C622   1.265       .  A
O89          V95   1.903   1_556  S
O89         C623   1.266       .  A
O90          V95   1.902   1_655  S
O90         C624   1.265       .  A
O91          V96   1.904   1_655  S
O91         C100   1.266       .  A
O92          V96   1.904   1_556  S
O92          C99   1.266   1_545  A
O93          V96   1.898   1_656  S
O93          C98   1.264       .  A
O94          V96   1.895       .  S
O94          C97   1.264   1_545  A
V95         V620   2.084       .  T
V96         V619   2.085   1_545  T
C97         O611   1.266       .  A
C97         C169   1.480       .  S
C98         O612   1.265   1_545  A
C98         C218   1.478       .  S
C99         O613   1.265       .  A
C99         C158   1.481       .  S
C100        O614   1.265   1_545  A
C100        C189   1.479       .  S
C101        C102   1.535   1_565  S
C101        C631   1.542       .  S
C101        C629   1.539       .  S
C101        C149   1.531       .  S
C102        H109   1.085       .  S
C102        C103   1.368       .  D
C103        C628   1.546   1_545  S
C103        C318   1.498       .  S
C104        C108   1.533       .  S
C104        C627   1.543       .  S
C104        C630   1.544       .  S
C104        H110   1.107       .  S
C105        C625   1.539       .  S
C105        H111   1.085       .  S
C105        C630   1.371       .  D
C106        C628   1.548       .  S
C106        C629   1.373       .  D
C106        C129   1.498       .  S
C107        C625   1.543       .  S
C107        H112   1.081       .  S
C107        C108   1.363       .  D
C108        C289   1.476       .  S
C113        C119   1.539   1_565  S
C113        C117   1.548       .  S
C113        C638   1.535       .  S
C113        C178   1.527       .  S
C114        C637   1.537       .  S
C114        H121   1.085       .  S
C114        C115   1.370       .  D
C115        C640   1.541       .  S
C115        C278   1.491       .  S
C116        C120   1.533   1_565  S
C116        C118   1.536       .  S
C116        C639   1.546       .  S
C116        H122   1.108       .  S
C117        H123   1.083       .  S
C117        C118   1.368       .  D
C118        C138   1.479       .  S
C119        H124   1.086       .  S
C119        C120   1.360       .  D
C120        C258   1.474       .  S
C125        C126   1.408       .  A
C125        C130   1.398       .  A
C125        H135   1.082   1_565  S
C126        C131   1.497       .  S
C126        C651   1.407       .  A
C127        C128   1.399       .  A
C127        C650   1.408       .  A
C127        H132   1.082       .  S
C128        C653   1.406       .  A
C128        H133   1.082       .  S
C129        C130   1.406       .  A
C129        C652   1.409       .  A
C130        H134   1.080   1_565  S
C131        C136   1.409   1_565  A
C131        C664   1.412       .  A
C136        C137   1.396       .  A
C136        H141   1.081       .  S
C137        C138   1.401   1_545  A
C137        H142   1.084       .  S
C138        C663   1.401       .  A
C139        C140   1.399       .  A
C139        C662   1.399       .  A
C139        H143   1.083       .  S
C140        C655   1.411       .  A
C140        H144   1.082       .  S
C145        C146   1.403       .  A
C145        C150   1.395       .  A
C145        H155   1.083       .  S
C146        C151   1.487       .  S
C146        C671   1.405   1_565  A
C147        C148   1.400       .  A
C147        C670   1.406       .  A
C147        H152   1.083       .  S
C148        C673   1.409       .  A
C148        H153   1.083       .  S
C149        C150   1.411       .  A
C149        C672   1.410   1_565  A
C150        H154   1.076       .  S
C151        C160   1.407   1_565  A
C151        C680   1.406       .  A
C156        C157   1.400       .  A
C156        C675   1.407       .  A
C156        H161   1.083       .  S
C157        C682   1.406       .  A
C157        H162   1.083       .  S
C158        C159   1.405   1_565  A
C158        C681   1.405       .  A
C159        C160   1.400       .  A
C159        H163   1.083       .  S
C160        H164   1.082       .  S
C165        C170   1.399       .  A
C165        C690   1.404       .  A
C165        H175   1.083       .  S
C166        C171   1.476       .  S
C166        C167   1.402   1_565  A
C166        C689   1.403       .  A
C167        C168   1.396       .  A
C167        H172   1.084       .  S
C168        C169   1.406   1_545  A
C168        H173   1.083       .  S
C169        C694   1.407       .  A
C170        C693   1.406       .  A
C170        H174   1.083       .  S
C171        C180   1.399       .  A
C171        C700   1.402       .  A
C176        C177   1.401       .  A
C176        C695   1.403       .  A
C176        H181   1.083       .  S
C177        C702   1.411       .  A
C177        H182   1.078       .  S
C178        C179   1.410       .  A
C178        C701   1.411       .  A
C179        C180   1.394       .  A
C179        H183   1.083       .  S
C180        H184   1.083   1_565  S
C185        C186   1.405       .  A
C185        C190   1.401       .  A
C185        H195   1.083       .  S
C186        C191   1.484       .  S
C186        C711   1.405   1_545  A
C187        C188   1.399       .  A
C187        C710   1.405       .  A
C187        H192   1.083       .  S
C188        C713   1.405       .  A
C188        H193   1.083       .  S
C189        C190   1.406       .  A
C189        C712   1.404   1_545  A
C190        H194   1.083       .  S
C191        C196   1.404       .  A
C191        C724   1.402       .  A
C196        C197   1.402       .  A
C196        H201   1.083       .  S
C197        C722   1.411       .  A
C197        H202   1.078       .  S
C198        C199   1.410       .  A
C198        C721   1.412       .  A
C199        C200   1.398       .  A
C199        H203   1.083       .  S
C200        C715   1.402       .  A
C200        H204   1.083       .  S
C205        C206   1.405       .  A
C205        C210   1.399       .  A
C205        H215   1.082   1_545  S
C206        C211   1.487       .  S
C206        C731   1.403       .  A
C207        C208   1.395       .  A
C207        C730   1.403       .  A
C207        H212   1.083       .  S
C208        C733   1.410       .  A
C208        H213   1.076       .  S
C209        C210   1.408       .  A
C209        C732   1.411       .  A
C210        H214   1.083   1_545  S
C211        C216   1.406   1_545  A
C211        C744   1.407       .  A
C216        C217   1.397       .  A
C216        H221   1.082       .  S
C217        C218   1.405   1_565  A
C217        H222   1.083       .  S
C218        C743   1.404       .  A
C219        C220   1.397       .  A
C219        C742   1.404       .  A
C219        H223   1.083       .  S
C220        C735   1.406       .  A
C220        H224   1.083       .  S
C225        C226   1.401       .  A
C225        C230   1.396       .  A
C225        H235   1.083       .  S
C226        C231   1.480       .  S
C226        C751   1.404       .  A
C227        C228   1.400       .  A
C227        C750   1.401       .  A
C227        H232   1.083       .  S
C228        C753   1.410       .  A
C228        H233   1.081       .  S
C229        C230   1.407       .  A
C229        C752   1.409       .  A
C230        H234   1.080       .  S
C231        C236   1.402       .  A
C231        C764   1.403       .  A
C236        C237   1.396       .  A
C236        H241   1.083   1_545  S
C237        C238   1.407       .  A
C237        H242   1.081   1_545  S
C238        C763   1.409       .  A
C239        C240   1.400       .  A
C239        C762   1.407       .  A
C239        H243   1.082       .  S
C240        C755   1.403       .  A
C240        H244   1.083       .  S
C245        C246   1.409       .  A
C245        C250   1.396       .  A
C245        H255   1.081       .  S
C246        C251   1.495       .  S
C246        C247   1.411       .  A
C247        C248   1.400       .  A
C247        H252   1.082       .  S
C248        C249   1.400       .  A
C248        H253   1.083       .  S
C249        C250   1.400       .  A
C250        H254   1.084       .  S
C251        C256   1.411       .  A
C251        C260   1.409       .  A
C256        C257   1.398       .  A
C256        H261   1.082       .  S
C257        C258   1.398       .  A
C257        H262   1.083       .  S
C258        C259   1.401       .  A
C259        C260   1.399       .  A
C259        H263   1.083       .  S
C260        H264   1.082       .  S
C265        C266   1.407       .  A
C265        C270   1.395       .  A
C265        H275   1.082       .  S
C266        C271   1.496       .  S
C266        C267   1.410       .  A
C267        C268   1.400       .  A
C267        H272   1.082       .  S
C268        C269   1.404       .  A
C268        H273   1.082       .  S
C269        C270   1.406       .  A
C270        H274   1.082       .  S
C271        C276   1.408       .  A
C271        C280   1.409       .  A
C276        C277   1.398       .  A
C276        H281   1.082       .  S
C277        C278   1.406       .  A
C277        H282   1.081       .  S
C278        C279   1.405       .  A
C279        C280   1.397       .  A
C279        H283   1.082       .  S
C280        H284   1.081       .  S
C285        C286   1.406       .  A
C285        C290   1.400       .  A
C285        H295   1.083       .  S
C286        C291   1.480       .  S
C286        C287   1.404       .  A
C287        C288   1.397       .  A
C287        H292   1.083       .  S
C288        C289   1.403       .  A
C288        H293   1.084       .  S
C289        C290   1.402       .  A
C290        H294   1.083       .  S
C291        C296   1.403       .  A
C291        C300   1.402       .  A
C296        C297   1.399       .  A
C296        H301   1.083       .  S
C297        C298   1.408       .  A
C297        H302   1.081       .  S
C298        C299   1.409       .  A
C299        C300   1.397       .  A
C299        H303   1.081       .  S
C300        H304   1.083       .  S
C305        C306   1.407       .  A
C305        C310   1.398       .  A
C305        H315   1.082       .  S
C306        C311   1.497       .  S
C306        C307   1.410       .  A
C307        C308   1.403       .  A
C307        H312   1.083       .  S
C308        C309   1.404       .  A
C308        H313   1.082       .  S
C309        C310   1.406       .  A
C310        H314   1.083       .  S
C311        C316   1.408       .  A
C311        C320   1.407       .  A
C316        C317   1.400       .  A
C316        H321   1.082       .  S
C317        C318   1.405       .  A
C317        H322   1.080       .  S
C318        C319   1.410       .  A
C319        C320   1.400       .  A
C319        H323   1.082       .  S
C320        H324   1.082       .  S
C325        C326   1.410       .  A
C325        C330   1.396       .  A
C325        H335   1.081       .  S
C326        C331   1.498       .  S
C326        C327   1.411       .  A
C327        C328   1.400       .  A
C327        H332   1.081       .  S
C328        C329   1.402       .  A
C328        H333   1.083       .  S
C329        C330   1.400       .  A
C330        H334   1.084       .  S
C331        C336   1.408       .  A
C331        C340   1.408       .  A
C336        C337   1.396       .  A
C336        H341   1.081       .  S
C337        C338   1.406       .  A
C337        H342   1.080       .  S
C338        C339   1.409       .  A
C339        C340   1.400       .  A
C339        H343   1.081       .  S
C340        H344   1.082       .  S
C345        C346   1.403       .  A
C345        C350   1.399       .  A
C345        H355   1.083       .  S
C346        C351   1.480       .  S
C346        C347   1.405       .  A
C347        C348   1.399       .  A
C347        H352   1.084       .  S
C348        C349   1.405       .  A
C348        H353   1.083       .  S
C349        C350   1.406       .  A
C350        H354   1.083       .  S
C351        C356   1.403       .  A
C351        C360   1.400       .  A
C356        C357   1.402       .  A
C356        H361   1.083       .  S
C357        C358   1.412       .  A
C357        H362   1.077       .  S
C358        C359   1.410       .  A
C359        C360   1.395       .  A
C359        H363   1.083       .  S
C360        H364   1.083       .  S
C365        C366   1.405       .  A
C365        C370   1.396       .  A
C365        H375   1.083       .  S
C366        C371   1.484       .  S
C366        C367   1.406       .  A
C367        C368   1.398       .  A
C367        H372   1.082       .  S
C368        C369   1.405       .  A
C368        H373   1.083       .  S
C369        C370   1.404       .  A
C370        H374   1.082       .  S
C371        C376   1.403       .  A
C371        C380   1.404       .  A
C376        C377   1.395       .  A
C376        H381   1.083       .  S
C377        C378   1.410       .  A
C377        H382   1.076       .  S
C378        C379   1.409       .  A
C379        C380   1.397       .  A
C379        H383   1.083       .  S
C380        H384   1.083       .  S
C385        C386   1.404       .  A
C385        C390   1.399       .  A
C385        H395   1.083       .  S
C386        C391   1.482       .  S
C386        C387   1.405       .  A
C387        C388   1.399       .  A
C387        H392   1.083       .  S
C388        C389   1.403       .  A
C388        H393   1.083       .  S
C389        C390   1.403       .  A
C390        H394   1.081       .  S
C391        C396   1.403       .  A
C391        C400   1.401       .  A
C396        C397   1.400       .  A
C396        H401   1.083       .  S
C397        C398   1.409       .  A
C397        H402   1.080       .  S
C398        C399   1.412       .  A
C399        C400   1.398       .  A
C399        H403   1.080       .  S
C400        H404   1.083       .  S
C405        C406   1.407       .  A
C405        C410   1.396       .  A
C405        H415   1.082       .  S
C406        C411   1.491       .  S
C406        C407   1.406       .  A
C407        C408   1.398       .  A
C407        H412   1.082       .  S
C408        C409   1.406       .  A
C408        H413   1.081       .  S
C409        C410   1.406       .  A
C410        H414   1.082       .  S
C411        C416   1.407       .  A
C411        C420   1.405       .  A
C416        C417   1.399       .  A
C416        H421   1.082       .  S
C417        C418   1.406       .  A
C417        H422   1.081       .  S
C418        C419   1.408       .  A
C419        C420   1.396       .  A
C419        H423   1.081       .  S
C420        H424   1.082       .  S
C425        C426   1.405       .  A
C425        C430   1.400       .  A
C425        H435   1.083       .  S
C426        C431   1.488       .  S
C426        C427   1.403       .  A
C427        C428   1.397       .  A
C427        H432   1.082       .  S
C428        C429   1.410       .  A
C428        H433   1.077       .  S
C429        C430   1.410       .  A
C430        H434   1.083       .  S
C431        C436   1.405       .  A
C431        C440   1.407       .  A
C436        C437   1.399       .  A
C436        H441   1.083       .  S
C437        C438   1.407       .  A
C437        H442   1.083       .  S
C438        C439   1.404       .  A
C439        C440   1.399       .  A
C439        H443   1.083       .  S
C440        H444   1.083       .  S
C445        C446   1.404       .  A
C445        C450   1.401       .  A
C445        H455   1.083       .  S
C446        C451   1.483       .  S
C446        C447   1.402       .  A
C447        C448   1.396       .  A
C447        H452   1.083       .  S
C448        C449   1.410       .  A
C448        H453   1.081       .  S
C449        C450   1.408       .  A
C450        H454   1.080       .  S
C451        C456   1.406       .  A
C451        C460   1.406       .  A
C456        C457   1.400       .  A
C456        H461   1.083       .  S
C457        C458   1.402       .  A
C457        H462   1.082       .  S
C458        C459   1.401       .  A
C459        C460   1.398       .  A
C459        H463   1.084       .  S
C460        H464   1.083       .  S
C465        C466   1.406       .  A
C465        C470   1.399       .  A
C465        H475   1.083       .  S
C466        C471   1.488       .  S
C466        C467   1.405       .  A
C467        C468   1.395       .  A
C467        H472   1.082       .  S
C468        C469   1.408       .  A
C468        H473   1.081       .  S
C469        C470   1.406       .  A
C470        H474   1.079       .  S
C471        C476   1.406       .  A
C471        C480   1.407       .  A
C476        C477   1.398       .  A
C476        H481   1.082       .  S
C477        C478   1.407       .  A
C477        H482   1.082       .  S
C478        C479   1.405       .  A
C479        C480   1.397       .  A
C479        H483   1.081       .  S
C480        H484   1.083       .  S
C485        C486   1.400       .  A
C485        C490   1.394       .  A
C485        H495   1.083       .  S
C486        C491   1.477       .  S
C486        C487   1.403       .  A
C487        C488   1.403       .  A
C487        H492   1.083       .  S
C488        C489   1.412       .  A
C488        H493   1.078       .  S
C489        C490   1.409       .  A
C490        H494   1.083       .  S
C491        C496   1.403       .  A
C491        C500   1.403       .  A
C496        C497   1.396       .  A
C496        H501   1.083       .  S
C497        C498   1.404       .  A
C497        H502   1.083       .  S
C498        C499   1.407       .  A
C499        C500   1.401       .  A
C499        H503   1.083       .  S
C500        H504   1.083       .  S
C505        C506   1.403       .  A
C505        C510   1.401       .  A
C505        H515   1.083       .  S
C506        C511   1.483       .  S
C506        C507   1.402       .  A
C507        C508   1.396       .  A
C507        H512   1.083       .  S
C508        C509   1.409       .  A
C508        H513   1.078       .  S
C509        C510   1.412       .  A
C510        H514   1.080       .  S
C511        C516   1.406       .  A
C511        C520   1.403       .  A
C516        C517   1.403       .  A
C516        H521   1.083       .  S
C517        C518   1.407       .  A
C517        H522   1.082       .  S
C518        C519   1.405       .  A
C519        C520   1.395       .  A
C519        H523   1.082       .  S
C520        H524   1.083       .  S
C525        C526   1.540       .  S
C525        C531   1.534       .  S
C525        C529   1.541       .  S
C525       C1013   1.531       .  S
C526        H533   1.078       .  S
C526        C527   1.367       .  D
C527        C528   1.544       .  S
C527        C993   1.496       .  S
C528        C532   1.544       .  S
C528        C530   1.537       .  S
C528        H534   1.104       .  S
C529        H535   1.086       .  S
C529        C530   1.368       .  D
C530       C1042   1.487       .  S
C531        H536   1.084       .  S
C531        C532   1.369       .  D
C532        C973   1.496       .  S
C537        C538   1.531       .  S
C537        C543   1.533       .  S
C537        C541   1.544       .  S
C537        C953   1.532       .  S
C538        H545   1.085       .  S
C538        C539   1.366       .  D
C539        C540   1.545       .  S
C539        C942   1.496       .  S
C540        C544   1.548       .  S
C540        C542   1.547       .  S
C540        H546   1.103       .  S
C541        H547   1.080       .  S
C541        C542   1.373       .  D
C542       C1033   1.499       .  S
C543        H548   1.085       .  S
C543        C544   1.368       .  D
C544        C913   1.498       .  S
O549        V557   1.907       .  S
O549        C559   1.266       .  A
O550        V557   1.903   1_556  S
O550        C560   1.266       .  A
O551        V557   1.899   1_556  S
O551        C561   1.265       .  A
O552        V557   1.899       .  S
O552        C562   1.265       .  A
O553        V558   1.901       .  S
O553        C562   1.265       .  A
O554        V558   1.899   1_556  S
O554        C561   1.265       .  A
O555        V558   1.903   1_556  S
O555        C560   1.265       .  A
O556        V558   1.901       .  S
O556        C559   1.265       .  A
V557        V558   2.083       .  T
C559        C962   1.482       .  S
C560        C873   1.480       .  S
C561       C1022   1.478       .  S
C562        C893   1.478       .  S
C563        C564   1.534       .  S
C563        C569   1.535       .  S
C563        C567   1.550       .  S
C563        C882   1.531       .  S
C564        H571   1.086       .  S
C564        C565   1.364       .  D
C565        C566   1.540       .  S
C565        C833   1.492       .  S
C566        C570   1.541       .  S
C566        C568   1.543       .  S
C566        H572   1.101       .  S
C567        H573   1.080       .  S
C567        C568   1.376       .  D
C568        C862   1.499       .  S
C569        H574   1.085       .  S
C569        C570   1.366       .  D
C570        C822   1.497       .  S
C575        C576   1.536       .  S
C575        C581   1.539       .  S
C575        C579   1.548       .  S
C575        C902   1.526       .  S
C576        H583   1.086       .  S
C576        C577   1.364       .  D
C577        C578   1.537       .  S
C577        C793   1.482       .  S
C578        C582   1.536       .  S
C578        C580   1.535       .  S
C578        H584   1.111       .  S
C579        H585   1.083       .  S
C579        C580   1.368       .  D
C580        C853   1.479       .  S
C581        H586   1.086       .  S
C581        C582   1.364       .  D
C582        C773   1.478       .  S
C587        C593   1.541       .  S
C587        C591   1.540       .  S
C587        C733   1.528       .  S
C588        H595   1.086       .  S
C588        C589   1.366       .  D
C589       C1002   1.490       .  S
C590        C594   1.535       .  S
C590        C592   1.543       .  S
C590        H596   1.105       .  S
C591        H597   1.084       .  S
C591        C592   1.371       .  D
C592        C753   1.495       .  S
C593        H598   1.081       .  S
C593        C594   1.361       .  D
C594        C982   1.477       .  S
C599        C605   1.538   1_545  S
C599        C603   1.547       .  S
C599        C722   1.530       .  S
C600        H607   1.085       .  S
C600        C601   1.369       .  D
C601        C933   1.500       .  S
C602        C606   1.540   1_545  S
C602        H608   1.104       .  S
C603        H609   1.081       .  S
C604        C762   1.488       .  S
C605        H610   1.086       .  S
C605        C606   1.366       .  D
C606        C922   1.491       .  S
O611        V619   1.904       .  S
O612        V619   1.899   1_656  S
O613        V619   1.897   1_556  S
O614        V619   1.899   1_655  S
O615        V620   1.909   1_655  S
O615        C624   1.267       .  A
O616        V620   1.907   1_556  S
O616        C623   1.267       .  A
O617        V620   1.900   1_656  S
O617        C622   1.265       .  A
O618        V620   1.898       .  S
O618        C621   1.264       .  A
C621        C693   1.477       .  S
C622        C742   1.480       .  S
C623        C682   1.486       .  S
C624        C713   1.484       .  S
C625        C626   1.537       .  S
C625        C673   1.533       .  S
C626        H633   1.085       .  S
C626        C627   1.369       .  D
C627        C842   1.497       .  S
C628        C632   1.535       .  S
C628        H634   1.105       .  S
C629        H635   1.085       .  S
C630        C653   1.491       .  S
C631        H636   1.081       .  S
C631        C632   1.361       .  D
C632        C813   1.480       .  S
C637        C643   1.540       .  S
C637        C641   1.547       .  S
C637        C702   1.527       .  S
C638        H645   1.084       .  S
C638        C639   1.370       .  D
C639        C802   1.500       .  S
C640        C644   1.530       .  S
C640        C642   1.533       .  S
C640        H646   1.110       .  S
C641        H647   1.082       .  S
C641        C642   1.366       .  D
C642        C662   1.472       .  S
C643        H648   1.086       .  S
C643        C644   1.361       .  D
C644        C782   1.473       .  S
C649        C650   1.409       .  A
C649        C654   1.398       .  A
C649        H659   1.082       .  S
C650        C655   1.495       .  S
C651        C652   1.400       .  A
C651        H656   1.082       .  S
C652        H657   1.081       .  S
C653        C654   1.404       .  A
C654        H658   1.082       .  S
C655        C660   1.410       .  A
C660        C661   1.397       .  A
C660        H665   1.081       .  S
C661        C662   1.399       .  A
C661        H666   1.084       .  S
C663        C664   1.402       .  A
C663        H667   1.083       .  S
C664        H668   1.082       .  S
C669        C670   1.405       .  A
C669        C674   1.399       .  A
C669        H679   1.083       .  S
C670        C675   1.493       .  S
C671        C672   1.400       .  A
C671        H676   1.083       .  S
C672        H677   1.083       .  S
C673        C674   1.412       .  A
C674        H678   1.076       .  S
C675        C684   1.408       .  A
C680        C681   1.396       .  A
C680        H685   1.083       .  S
C681        H686   1.083       .  S
C682        C683   1.406       .  A
C683        C684   1.401       .  A
C683        H687   1.083       .  S
C684        H688   1.082       .  S
C689        C694   1.401       .  A
C689        H699   1.083       .  S
C690        C695   1.479       .  S
C690        C691   1.404       .  A
C691        C692   1.397       .  A
C691        H696   1.083       .  S
C692        C693   1.404       .  A
C692        H697   1.083       .  S
C694        H698   1.083       .  S
C695        C704   1.401       .  A
C700        C701   1.402       .  A
C700        H705   1.083       .  S
C701        H706   1.079       .  S
C702        C703   1.409       .  A
C703        C704   1.394       .  A
C703        H707   1.083       .  S
C704        H708   1.083       .  S
C709        C710   1.406       .  A
C709        C714   1.404       .  A
C709        H719   1.083       .  S
C710        C715   1.487       .  S
C711        C712   1.397       .  A
C711        H716   1.083       .  S
C712        H717   1.083       .  S
C713        C714   1.407       .  A
C714        H718   1.083       .  S
C715        C720   1.404       .  A
C720        C721   1.405       .  A
C720        H725   1.083       .  S
C721        H726   1.078       .  S
C722        C723   1.409       .  A
C723        C724   1.396       .  A
C723        H727   1.083       .  S
C724        H728   1.083       .  S
C729        C730   1.405       .  A
C729        C734   1.399       .  A
C729        H739   1.083       .  S
C730        C735   1.486       .  S
C731        C732   1.395       .  A
C731        H736   1.083       .  S
C732        H737   1.077       .  S
C733        C734   1.409       .  A
C734        H738   1.083       .  S
C735        C740   1.406       .  A
C740        C741   1.399       .  A
C740        H745   1.083       .  S
C741        C742   1.406       .  A
C741        H746   1.083       .  S
C743        C744   1.397       .  A
C743        H747   1.083       .  S
C744        H748   1.083       .  S
C749        C750   1.401       .  A
C749        C754   1.396       .  A
C749        H759   1.084       .  S
C750        C755   1.478       .  S
C751        C752   1.401       .  A
C751        H756   1.083       .  S
C752        H757   1.082       .  S
C753        C754   1.408       .  A
C754        H758   1.078       .  S
C755        C760   1.402       .  A
C760        C761   1.396       .  A
C760        H765   1.083       .  S
C761        C762   1.406       .  A
C761        H766   1.082       .  S
C763        C764   1.401       .  A
C763        H767   1.082       .  S
C764        H768   1.083       .  S
C769        C770   1.410       .  A
C769        C774   1.398       .  A
C769        H779   1.082       .  S
C770        C775   1.496       .  S
C770        C771   1.411       .  A
C771        C772   1.398       .  A
C771        H776   1.082       .  S
C772        C773   1.400       .  A
C772        H777   1.083       .  S
C773        C774   1.402       .  A
C774        H778   1.083       .  S
C775        C780   1.411       .  A
C775        C784   1.410       .  A
C780        C781   1.399       .  A
C780        H785   1.082       .  S
C781        C782   1.399       .  A
C781        H786   1.083       .  S
C782        C783   1.400       .  A
C783        C784   1.397       .  A
C783        H787   1.084       .  S
C784        H788   1.081       .  S
C789        C790   1.404       .  A
C789        C794   1.400       .  A
C789        H799   1.083       .  S
C790        C795   1.480       .  S
C790        C791   1.404       .  A
C791        C792   1.399       .  A
C791        H796   1.083       .  S
C792        C793   1.404       .  A
C792        H797   1.083       .  S
C793        C794   1.405       .  A
C794        H798   1.083       .  S
C795        C800   1.402       .  A
C795        C804   1.400       .  A
C800        C801   1.400       .  A
C800        H805   1.083       .  S
C801        C802   1.409       .  A
C801        H806   1.080       .  S
C802        C803   1.412       .  A
C803        C804   1.398       .  A
C803        H807   1.080       .  S
C804        H808   1.083       .  S
C809        C810   1.405       .  A
C809        C814   1.400       .  A
C809        H819   1.083       .  S
C810        C815   1.478       .  S
C810        C811   1.403       .  A
C811        C812   1.397       .  A
C811        H816   1.083       .  S
C812        C813   1.405       .  A
C812        H817   1.084       .  S
C813        C814   1.402       .  A
C814        H818   1.082       .  S
C815        C820   1.401       .  A
C815        C824   1.401       .  A
C820        C821   1.398       .  A
C820        H825   1.083       .  S
C821        C822   1.410       .  A
C821        H826   1.080       .  S
C822        C823   1.410       .  A
C823        C824   1.398       .  A
C823        H827   1.081       .  S
C824        H828   1.083       .  S
C829        C830   1.407       .  A
C829        C834   1.400       .  A
C829        H839   1.082       .  S
C830        C835   1.494       .  S
C830        C831   1.408       .  A
C831        C832   1.399       .  A
C831        H836   1.083       .  S
C832        C833   1.404       .  A
C832        H837   1.082       .  S
C833        C834   1.408       .  A
C834        H838   1.083       .  S
C835        C840   1.408       .  A
C835        C844   1.406       .  A
C840        C841   1.401       .  A
C840        H845   1.082       .  S
C841        C842   1.407       .  A
C841        H846   1.081       .  S
C842        C843   1.408       .  A
C843        C844   1.398       .  A
C843        H847   1.081       .  S
C844        H848   1.083       .  S
C849        C850   1.411       .  A
C849        C854   1.396       .  A
C849        H859   1.081       .  S
C850        C855   1.499       .  S
C850        C851   1.411       .  A
C851        C852   1.401       .  A
C851        H856   1.082       .  S
C852        C853   1.402       .  A
C852        H857   1.083       .  S
C853        C854   1.400       .  A
C854        H858   1.084       .  S
C855        C860   1.407       .  A
C855        C864   1.409       .  A
C860        C861   1.395       .  A
C860        H865   1.081       .  S
C861        C862   1.407       .  A
C861        H866   1.080       .  S
C862        C863   1.408       .  A
C863        C864   1.402       .  A
C863        H867   1.081       .  S
C864        H868   1.081       .  S
C869        C870   1.404       .  A
C869        C874   1.399       .  A
C869        H879   1.083       .  S
C870        C875   1.485       .  S
C870        C871   1.406       .  A
C871        C872   1.401       .  A
C871        H876   1.084       .  S
C872        C873   1.405       .  A
C872        H877   1.083       .  S
C873        C874   1.405       .  A
C874        H878   1.083       .  S
C875        C880   1.406       .  A
C875        C884   1.401       .  A
C880        C881   1.403       .  A
C880        H885   1.083       .  S
C881        C882   1.410       .  A
C881        H886   1.078       .  S
C882        C883   1.411       .  A
C883        C884   1.396       .  A
C883        H887   1.083       .  S
C884        H888   1.083       .  S
C889        C890   1.404       .  A
C889        C894   1.398       .  A
C889        H899   1.084       .  S
C890        C895   1.481       .  S
C890        C891   1.405       .  A
C891        C892   1.398       .  A
C891        H896   1.083       .  S
C892        C893   1.405       .  A
C892        H897   1.084       .  S
C893        C894   1.406       .  A
C894        H898   1.083       .  S
C895        C900   1.401       .  A
C895        C904   1.403       .  A
C900        C901   1.396       .  A
C900        H905   1.083       .  S
C901        C902   1.410       .  A
C901        H906   1.083       .  S
C902        C903   1.410       .  A
C903        C904   1.399       .  A
C903        H907   1.078       .  S
C904        H908   1.083       .  S
C909        C910   1.404       .  A
C909        C914   1.396       .  A
C909        H919   1.082       .  S
C910        C915   1.494       .  S
C910        C911   1.409       .  A
C911        C912   1.403       .  A
C911        H916   1.082       .  S
C912        C913   1.407       .  A
C912        H917   1.081       .  S
C913        C914   1.409       .  A
C914        H918   1.081       .  S
C915        C920   1.406       .  A
C915        C924   1.408       .  A
C920        C921   1.399       .  A
C920        H925   1.083       .  S
C921        C922   1.407       .  A
C921        H926   1.082       .  S
C922        C923   1.404       .  A
C923        C924   1.399       .  A
C923        H927   1.082       .  S
C924        H928   1.082       .  S
C929        C930   1.407       .  A
C929        C934   1.397       .  A
C929        H939   1.082       .  S
C930        C935   1.498       .  S
C930        C931   1.409       .  A
C931        C932   1.405       .  A
C931        H936   1.083       .  S
C932        C933   1.409       .  A
C932        H937   1.081       .  S
C933        C934   1.407       .  A
C934        H938   1.082       .  S
C935        C940   1.409       .  A
C935        C944   1.407       .  A
C940        C941   1.405       .  A
C940        H945   1.083       .  S
C941        C942   1.407       .  A
C941        H946   1.082       .  S
C942        C943   1.407       .  A
C943        C944   1.397       .  A
C943        H947   1.082       .  S
C944        H948   1.082       .  S
C949        C950   1.402       .  A
C949        C954   1.402       .  A
C949        H959   1.083       .  S
C950        C955   1.479       .  S
C950        C951   1.400       .  A
C951        C952   1.397       .  A
C951        H956   1.084       .  S
C952        C953   1.411       .  A
C952        H957   1.083       .  S
C953        C954   1.412       .  A
C954        H958   1.078       .  S
C955        C960   1.404       .  A
C955        C964   1.403       .  A
C960        C961   1.402       .  A
C960        H965   1.084       .  S
C961        C962   1.407       .  A
C961        H966   1.083       .  S
C962        C963   1.406       .  A
C963        C964   1.399       .  A
C963        H967   1.083       .  S
C964        H968   1.083       .  S
C969        C970   1.404       .  A
C969        C974   1.401       .  A
C969        H979   1.082       .  S
C970        C975   1.480       .  S
C970        C971   1.400       .  A
C971        C972   1.394       .  A
C971        H976   1.084       .  S
C972        C973   1.410       .  A
C972        H977   1.080       .  S
C973        C974   1.408       .  A
C974        H978   1.081       .  S
C975        C980   1.405       .  A
C975        C984   1.405       .  A
C980        C981   1.399       .  A
C980        H985   1.084       .  S
C981        C982   1.402       .  A
C981        H986   1.081       .  S
C982        C983   1.403       .  A
C983        C984   1.396       .  A
C983        H987   1.084       .  S
C984        H988   1.083       .  S
C989        C990   1.408       .  A
C989        C994   1.401       .  A
C989        H999   1.082       .  S
C990        C995   1.492       .  S
C990        C991   1.405       .  A
C991        C992   1.395       .  A
C991        H996   1.082       .  S
C992        C993   1.409       .  A
C992        H997   1.081       .  S
C993        C994   1.406       .  A
C994        H998   1.081       .  S
C995       C1000   1.406       .  A
C995       C1004   1.408       .  A
C1000      C1001   1.399       .  A
C1000      H1005   1.082       .  S
C1001      C1002   1.407       .  A
C1001      H1006   1.082       .  S
C1002      C1003   1.403       .  A
C1003      C1004   1.398       .  A
C1003      H1007   1.081       .  S
C1004      H1008   1.082       .  S
C1009      C1010   1.403       .  A
C1009      C1014   1.396       .  A
C1009      H1019   1.083       .  S
C1010      C1015   1.485       .  S
C1010      C1011   1.404       .  A
C1011      C1012   1.399       .  A
C1011      H1016   1.083       .  S
C1012      C1013   1.410       .  A
C1012      H1017   1.083       .  S
C1013      C1014   1.411       .  A
C1014      H1018   1.077       .  S
C1015      C1020   1.406       .  A
C1015      C1024   1.406       .  A
C1020      C1021   1.399       .  A
C1020      H1025   1.082       .  S
C1021      C1022   1.405       .  A
C1021      H1026   1.084       .  S
C1022      C1023   1.404       .  A
C1023      C1024   1.396       .  A
C1023      H1027   1.083       .  S
C1024      H1028   1.083       .  S
C1029      C1030   1.400       .  A
C1029      C1034   1.399       .  A
C1029      H1039   1.083       .  S
C1030      C1035   1.479       .  S
C1030      C1031   1.402       .  A
C1031      C1032   1.399       .  A
C1031      H1036   1.083       .  S
C1032      C1033   1.409       .  A
C1032      H1037   1.081       .  S
C1033      C1034   1.411       .  A
C1034      H1038   1.081       .  S
C1035      C1040   1.405       .  A
C1035      C1044   1.402       .  A
C1040      C1041   1.401       .  A
C1040      H1045   1.083       .  S
C1041      C1042   1.406       .  A
C1041      H1046   1.083       .  S
C1042      C1043   1.406       .  A
C1043      C1044   1.396       .  A
C1043      H1047   1.082       .  S
C1044      H1048   1.083       .  S
