geometry optimzed in LAMMPS
_audit_creation_date              2020-11-30 
_audit_creation_method            'lammps2cif' 
_symmetry_space_group_name_H-M    'P1' 
_symmetry_Int_Tables_number       1 
_symmetry_cell_setting            triclinic 
loop_ 
_symmetry_equiv_pos_as_xyz 
  x,y,z 
_cell_length_a                    31.19982178 
_cell_length_b                    43.95485287892265 
_cell_length_c                    38.09250363150664 
_cell_angle_alpha                 90.59312028816225 
_cell_angle_beta                  92.30224780878552 
_cell_angle_gamma                 89.79123321012291 
loop_ 
_atom_site_label 
_atom_site_type_symbol 
_atom_site_fract_x 
_atom_site_fract_y 
_atom_site_fract_z 
_atom_site_charge 
C1          C  0.71850274  0.28949045  0.35055349     0.86400
C2          C  0.68345811  0.28666700  0.37689233    -0.53900
C3          C  0.65862473  0.26133259  0.37312277     0.09300
C4          C  0.67220941  0.23996303  0.34267984     0.20200
C5          C  0.74459566  0.26011096  0.35309937    -0.54600
C6          C  0.72129940  0.23399179  0.34930100     0.09400
C7          C  0.69499541  0.28641053  0.31455498    -0.54100
C8          C  0.66991269  0.26115171  0.31036980     0.10000
H9          H  0.67839436  0.30399956  0.39688461     0.14500
H10         H  0.65257676  0.21906186  0.33916281     0.00200
H11         H  0.77933833  0.26001128  0.35651176     0.14800
H12         H  0.69981864  0.30118768  0.29257543     0.14600
C13         C  0.73917952  0.21108592  0.01628972     0.86400
C14         C  0.69642965  0.21509903  0.49684526    -0.53900
C15         C  0.67600410  0.24182500  0.50331769     0.09300
C16         C  0.70198430  0.26345013  0.02884331     0.20200
C17         C  0.76514879  0.23898813  0.50552078    -0.54600
C18         C  0.74734547  0.26639534  0.01388563     0.09400
C19         C  0.73025560  0.21698828  0.05514834    -0.54100
C20         C  0.71067789  0.24418136  0.06194206     0.10000
H21         H  0.68317447  0.19760252  0.47927284     0.14500
H22         H  0.68603412  0.28556228  0.03407147     0.00200
H23         H  0.79629569  0.23813418  0.49422362     0.14800
H24         H  0.73748241  0.20034554  0.07541376     0.14600
O25         O  0.60802169  0.28171892  0.41186306    -0.74600
O26         O  0.53062558  0.27434863  0.48641379    -0.74600
O27         O  0.61833220  0.27378846  0.48118676    -0.74600
O28         O  0.52041030  0.28400019  0.41688193    -0.74700
O29         O  0.51931087  0.23380831  0.40756661    -0.74600
O30         O  0.61374615  0.22364361  0.47265951    -0.74600
O31         O  0.52588726  0.22430417  0.47699805    -0.74600
O32         O  0.60672675  0.23152985  0.40301462    -0.74600
Ni33       Ni  0.56944189  0.28024830  0.44943691     1.25400
Ni34       Ni  0.56640469  0.22654222  0.43980819     1.25400
C35         C  0.62204541  0.25776220  0.39648099     0.87600
C36         C  0.51276187  0.24863196  0.49198637     0.87600
C37         C  0.63345279  0.24697178  0.48574490     0.87600
C38         C  0.50261530  0.26026979  0.40313275     0.87800
C39         C  0.39244729  0.23519021  0.37123042     0.86400
C40         C  0.43120982  0.23962204  0.39602717    -0.53900
C41         C  0.45908030  0.26142470  0.38639844     0.09300
C42         C  0.44347465  0.27921742  0.35318116     0.20200
C43         C  0.37070475  0.26660844  0.36995313    -0.54600
C44         C  0.39679011  0.28974405  0.36048582     0.09400
C45         C  0.41031608  0.23138973  0.33441726    -0.54100
C46         C  0.43735328  0.25392647  0.32484495     0.10000
H47         H  0.43780470  0.22487517  0.41838093     0.14500
H48         H  0.46519677  0.29775157  0.34553376     0.00200
H49         H  0.33718148  0.27086393  0.37439949     0.14800
H50         H  0.40131389  0.21259716  0.31691042     0.14600
C51         C  0.39969981  0.27110945  0.01303906     0.86400
C52         C  0.44416698  0.27234556  0.49911560    -0.53900
C53         C  0.47094499  0.24948490  0.50936995     0.09300
C54         C  0.44948114  0.22608071  0.03388828     0.20200
C55         C  0.38251174  0.23931954  0.50227706    -0.54600
C56         C  0.40785840  0.21558612  0.01361907     0.09400
C57         C  0.40614003  0.26902685  0.05292258    -0.54100
C58         C  0.43152952  0.24547788  0.06448302     0.10000
H59         H  0.45324523  0.28987066  0.48086742     0.14500
H60         H  0.47069388  0.20700665  0.04247559     0.00200
H61         H  0.35029921  0.23526818  0.49155812     0.14800
H62         H  0.39136106  0.28502484  0.07066917     0.14600
C63         C  0.89011002  0.48113757  0.36018832     0.86400
C64         C  0.93177514  0.48450855  0.38139129    -0.53900
C65         C  0.95733238  0.00758783  0.37154585     0.09300
C66         C  0.93663346  0.02741240  0.34149177     0.20200
C67         C  0.86789707  0.51214961  0.36421767    -0.54600
C68         C  0.89110574  0.03648017  0.35362789     0.09400
C69         C  0.90246921  0.48023439  0.32172433    -0.54100
C70         C  0.92629727  0.00424648  0.31138438     0.10000
H71         H  0.94127026  0.46871337  0.40208269     0.14500
H72         H  0.95653922  0.04686234  0.33356363     0.00200
H73         H  0.83565068  0.01530339  0.37286479     0.14800
H74         H  0.89387472  0.46135351  0.30427850     0.14600
C75         C  0.90686894  0.01614563  0.02452613     0.86400
C76         C  0.94304322  0.01891411  0.49876798    -0.53900
C77         C  0.97327752  0.49637525  0.50078755     0.09300
C78         C  0.96444528  0.47233216  0.02923729     0.20200
C79         C  0.88829771  0.98434742  0.51855633    -0.54600
C80         C  0.91766055  0.46125305  0.02103161     0.09400
C81         C  0.92993463  0.01354658  0.06064331    -0.54100
C82         C  0.96095752  0.49178463  0.06312848     0.10000
H83         H  0.94469995  0.03760920  0.48042005     0.14500
H84         H  0.98868150  0.45382370  0.03146445     0.00200
H85         H  0.85409206  0.48021399  0.51474040     0.14800
H86         H  0.92199996  0.02624671  0.08385579     0.14600
O87         O  0.11251971  0.47442372  0.45982714    -0.74600
O88         O  0.01974316  0.48220691  0.39260181    -0.74600
O89         O  0.10825535  0.48144105  0.39017003    -0.74600
O90         O  0.02484451  0.47372929  0.46265564    -0.74700
O91         O  0.02630651  0.02395271  0.47129944    -0.74600
O92         O  0.10546610  0.03166737  0.39792775    -0.74600
O93         O  0.01746320  0.03238170  0.40160164    -0.74600
O94         O  0.11501700  0.02473990  0.46747861    -0.74600
Ni95       Ni  0.06618550  0.47619049  0.42599384     1.25400
Ni96       Ni  0.06603640  0.02997237  0.43488413     1.25400
C97         C  0.13155150  0.49827883  0.47215181     0.87600
C98         C  0.00129644  0.50808813  0.38786569     0.87600
C99         C  0.12264156  0.50804970  0.38401904     0.87600
C100        C  0.01075110  0.49772037  0.47787104     0.87800
C101        C  0.22193289  0.04531275  0.34962657     0.86400
C102        C  0.18413523  0.03938332  0.37182992    -0.53900
C103        C  0.16247057  0.51312963  0.36428840     0.09300
C104        C  0.18368300  0.49348618  0.33476093     0.20200
C105        C  0.25106417  0.01712209  0.35385519    -0.54600
C106        C  0.23189078  0.48983256  0.34609063     0.09400
C107        C  0.20262968  0.04281759  0.31193500    -0.54100
C108        C  0.18620360  0.51503983  0.30291323     0.10000
H109        H  0.17464977  0.05562223  0.39182398     0.14500
H110        H  0.16695759  0.47176721  0.32842332     0.00200
H111        H  0.28440420  0.51892513  0.36260675     0.14800
H112        H  0.20410729  0.06014039  0.29231999     0.14600
C113        C  0.24104951  0.46349471  0.99069973     0.87000
C114        C  0.19939319  0.47150221  0.47143073    -0.53900
C115        C  0.17604791  0.99392466  0.48656034     0.09300
C116        C  0.19903934  0.00847281  0.01972967     0.20200
C117        C  0.26634077  0.49348688  0.49361455    -0.54600
C118        C  0.24483444  0.01714792  0.00891121     0.09400
C119        C  0.22847430  0.45787503  0.02869189    -0.54100
C120        C  0.20803626  0.98131451  0.04461521     0.10000
H121        H  0.18800428  0.45885896  0.44820085     0.14500
H122        H  0.18125007  0.02759704  0.03167183     0.00200
H123        H  0.29936544  0.99590129  0.48691473     0.14800
H124        H  0.23475832  0.43644319  0.04172534     0.14600
C125        C  0.19879028  0.98068857  0.08273260    -0.12100
C126        C  0.22660430  0.46616893  0.10801559     0.03400
C127        C  0.21641625  0.46618870  0.14328101    -0.12600
C128        C  0.18104899  0.98234745  0.15499711     0.18200
C129        C  0.15413109  0.99755541  0.13039149    -0.09700
C130        C  0.16224742  0.99582323  0.09452557    -0.02600
H131        H  0.23862000  0.45590290  0.16234910     0.04800
C132        C  0.18051256  0.48956967  0.19290510     0.20200
H133        H  0.14074235  0.00739828  0.07604228     0.09900
C134        C  0.21278907  0.00871560  0.20623894    -0.16000
C135        C  0.21674816  0.01575895  0.24176612     0.02900
C136        C  0.18574128  0.50501118  0.26520298    -0.11300
C137        C  0.15419986  0.48464858  0.25191230    -0.01400
C138        C  0.15175712  0.47660235  0.21599008    -0.06500
H139        H  0.23614473  0.01763748  0.18871887     0.05900
H140        H  0.13107290  0.47533329  0.26928134     0.09300
Br141      Br  0.10958900  0.02415537  0.14495099    -0.06200
Br142      Br  0.28270560  0.45014207  0.09896545    -0.03200
Br143      Br  0.26835714  0.03786479  0.25491352    -0.00300
Br144      Br  0.10970205  0.44756802  0.19951871    -0.04700
C145        C  0.94107517  0.00595152  0.27475216    -0.12100
C146        C  0.91414297  0.99711543  0.24562834     0.03400
C147        C  0.93119703  0.99297914  0.21269835    -0.12600
C148        C  0.97467104  0.49808202  0.20728549     0.18200
C149        C  0.00060798  0.51006978  0.23532005    -0.09700
C150        C  0.98390140  0.51340233  0.26887638    -0.02600
H151        H  0.91012258  0.98577759  0.19087992     0.04800
C152        C  0.98970872  0.49261385  0.17118743     0.20200
H153        H  0.00487515  0.52082124  0.29062590     0.09900
C154        C  0.00121298  0.01757237  0.15114149    -0.16000
C155        C  0.00051750  0.01550982  0.11448146     0.02900
C156        C  0.98529903  0.48875712  0.09722580    -0.11300
C157        C  0.97966766  0.46259400  0.11715038    -0.01400
C158        C  0.98250564  0.46427961  0.15400104    -0.06500
H159        H  0.00717221  0.03944589  0.16371539     0.05900
H160        H  0.96848814  0.44178828  0.10439064     0.09300
Br161      Br  0.05881349  0.52176797  0.22970235    -0.06200
Br162      Br  0.85332121  0.99134945  0.24787110    -0.03200
Br163      Br  0.01362681  0.05154199  0.08881186    -0.00300
Br164      Br  0.97162127  0.42812562  0.17993760    -0.04700
C165        C  0.38768627  0.18519204  0.01809242    -0.12100
C166        C  0.39871226  0.15948852  0.49806430     0.03400
C167        C  0.37437555  0.13264839  0.49976488    -0.12600
C168        C  0.33924036  0.13083355  0.02176986     0.18200
C169        C  0.33009457  0.15598362  0.04344265    -0.09700
C170        C  0.35361280  0.18288000  0.04091936    -0.02600
H171        H  0.38243012  0.11330411  0.48343409     0.04800
C172        C  0.31275787  0.10260436  0.02175425     0.20200
H173        H  0.34477219  0.20235775  0.05649496     0.09900
C174        C  0.33091606  0.07573524  0.03516124    -0.16000
C175        C  0.30824774  0.04823451  0.03342281     0.02900
C176        C  0.26647327  0.04693943  0.01743118    -0.11300
C177        C  0.24717845  0.07430010  0.50620651    -0.01400
C178        C  0.27012749  0.10184204  0.50774281    -0.06500
H179        H  0.36315090  0.07611356  0.04685290     0.05900
H180        H  0.21522470  0.07391196  0.49398402     0.09300
Br181      Br  0.28649303  0.15457398  0.07750049    -0.06200
Br182      Br  0.44580187  0.16056758  0.46748647    -0.03200
Br183      Br  0.33577720  0.01352649  0.05470055    -0.00300
Br184      Br  0.24322136  0.13731376  0.48774843    -0.04700
C185        C  0.26074379  0.43462868  0.97508963    -0.12100
C186        C  0.30037225  0.43248070  0.45832734     0.03400
C187        C  0.32104200  0.40419863  0.45652540    -0.12600
C188        C  0.30187600  0.37780327  0.96903030     0.18200
C189        C  0.25961732  0.37932852  0.98021507    -0.09700
C190        C  0.23880793  0.40728086  0.98126899    -0.02600
H191        H  0.35315002  0.40301644  0.44691358     0.04800
C192        C  0.32860113  0.35076341  0.97652934     0.20200
H193        H  0.20686364  0.40797647  0.99143244     0.09900
C194        C  0.36221413  0.35380152  0.00164424    -0.16000
C195        C  0.38566340  0.32859366  0.01325212     0.02900
C196        C  0.37421558  0.29896562  0.00085437    -0.11300
C197        C  0.34212909  0.29647901  0.47385305    -0.01400
C198        C  0.31973496  0.32199390  0.46155751    -0.06500
H199        H  0.37003297  0.37604242  0.01262793     0.05900
H200        H  0.33500525  0.27501843  0.46097442     0.09300
Br201      Br  0.23166042  0.34555502  0.00117184    -0.06200
Br202      Br  0.32562762  0.46488813  0.43295270    -0.03200
Br203      Br  0.43394179  0.33726011  0.04485429    -0.00300
Br204      Br  0.27869954  0.31610795  0.42349773    -0.04700
C205        C  0.25662985  0.46028070  0.34572028    -0.12100
C206        C  0.29966358  0.45794662  0.33473103     0.03400
C207        C  0.32185303  0.43017281  0.33686040    -0.12600
C208        C  0.30215522  0.40370633  0.34821608     0.18200
C209        C  0.25884913  0.40557594  0.35774443    -0.09700
C210        C  0.23685156  0.43357455  0.35678991    -0.02600
H211        H  0.35469372  0.42902973  0.32867208     0.04800
C212        C  0.32785037  0.37483821  0.34976894     0.20200
H213        H  0.20411919  0.43446194  0.36519785     0.09900
C214        C  0.36315663  0.37245245  0.37383722    -0.16000
C215        C  0.38761433  0.34553146  0.37659075     0.02900
C216        C  0.37787299  0.32059071  0.35425618    -0.11300
C217        C  0.34407412  0.32358329  0.32889322    -0.01400
C218        C  0.31948985  0.35035795  0.32630576    -0.06500
H219        H  0.37136601  0.39151700  0.39090340     0.05900
H220        H  0.33616372  0.30462996  0.31143103     0.09300
Br221      Br  0.22776285  0.37093278  0.37256470    -0.06200
Br222      Br  0.33021523  0.49030223  0.31342942    -0.03200
Br223      Br  0.43187399  0.34298973  0.41282790    -0.00300
Br224      Br  0.27597479  0.35278763  0.28939539    -0.04700
C225        C  0.36621728  0.20761989  0.38135659    -0.12100
C226        C  0.38441188  0.17790812  0.38005196     0.03400
C227        C  0.35845621  0.15250373  0.38282017    -0.12600
C228        C  0.31473165  0.15581154  0.38775297     0.18200
C229        C  0.29748781  0.18472350  0.39412015    -0.09700
C230        C  0.32317397  0.21041218  0.39106133    -0.02600
H231        H  0.37196301  0.13001909  0.37889775     0.04800
C232        C  0.28727654  0.12952583  0.37992283     0.20200
H233        H  0.30838618  0.23220123  0.39549140     0.09900
C234        C  0.28716339  0.10523808  0.40316281    -0.16000
C235        C  0.26590181  0.07828212  0.39384345     0.02900
C236        C  0.24451022  0.07505969  0.36036585    -0.11300
C237        C  0.24420224  0.10030999  0.33772659    -0.01400
C238        C  0.26579155  0.12697067  0.34702140    -0.06500
H239        H  0.30458466  0.10702273  0.42828449     0.05900
H240        H  0.22778127  0.10028291  0.31252887     0.09300
Br241      Br  0.23843673  0.19001938  0.40497377    -0.06200
Br242      Br  0.44380728  0.16939081  0.37274519    -0.03200
Br243      Br  0.26909821  0.04661672  0.42794607    -0.00300
Br244      Br  0.26755118  0.15852872  0.31251644    -0.04700
C245        C  0.43788054  0.23965038  0.10298633    -0.12100
C246        C  0.40380962  0.24376525  0.12617357     0.03400
C247        C  0.41238068  0.24589981  0.16228041    -0.12600
C248        C  0.45405343  0.24263921  0.17668418     0.18200
C249        C  0.48686271  0.23343068  0.15430524    -0.09700
C250        C  0.47893113  0.23294447  0.11758664    -0.02600
H251        H  0.38613657  0.25041642  0.17941985     0.04800
C252        C  0.46084829  0.24849027  0.21512199     0.20200
H253        H  0.50513545  0.22826342  0.10050483     0.09900
C254        C  0.47446383  0.22488344  0.23733791    -0.16000
C255        C  0.47267567  0.22803921  0.27382298     0.02900
C256        C  0.45415256  0.25428899  0.28878240    -0.11300
C257        C  0.44421232  0.27896855  0.26692136    -0.01400
C258        C  0.44816530  0.27643364  0.23043478    -0.06500
H259        H  0.48489831  0.20341313  0.22636787     0.05900
H260        H  0.43090049  0.29960259  0.27792094     0.09300
Br261      Br  0.54230707  0.22093624  0.17249528    -0.06200
Br262      Br  0.34426279  0.24571455  0.11120564    -0.03200
Br263      Br  0.49697092  0.19603196  0.30185642    -0.00300
Br264      Br  0.43432089  0.31144892  0.20244158    -0.04700
C265        C  0.90195397  0.42938461  0.02220185    -0.12100
C266        C  0.90718989  0.40860840  0.49427892     0.03400
C267        C  0.88273122  0.38174869  0.49229921    -0.12600
C268        C  0.85288343  0.37536107  0.01792116     0.18200
C269        C  0.84963366  0.39524024  0.04684722    -0.09700
C270        C  0.87382915  0.42196454  0.04872183    -0.02600
H271        H  0.88614007  0.36624845  0.47028416     0.04800
C272        C  0.82592564  0.34761880  0.01502213     0.20200
H273        H  0.86932832  0.43775972  0.07030704     0.09900
C274        C  0.84279111  0.32033271  0.02797177    -0.16000
C275        C  0.81754591  0.29418368  0.02902000     0.02900
C276        C  0.77420790  0.29463322  0.01576582    -0.11300
C277        C  0.75710116  0.32233907  0.50348576    -0.01400
C278        C  0.78262953  0.34863296  0.50294309    -0.06500
H279        H  0.87556921  0.31966078  0.03850576     0.05900
H280        H  0.72412619  0.32338617  0.49351951     0.09300
Br281      Br  0.81154753  0.38707729  0.08392839    -0.06200
Br282      Br  0.94515339  0.41699111  0.45734218    -0.03200
Br283      Br  0.84429482  0.25988163  0.05207518    -0.00300
Br284      Br  0.75728086  0.38557846  0.48568951    -0.04700
C285        C  0.75776647  0.17936827  0.01002582    -0.12100
C286        C  0.73548950  0.15295688  0.02058674     0.03400
C287        C  0.75453680  0.12431449  0.01781784    -0.12600
C288        C  0.79541222  0.12117478  0.00470100     0.18200
C289        C  0.81655036  0.14664592  0.49212980    -0.09700
C290        C  0.79762835  0.17527241  0.49434074    -0.02600
H291        H  0.73845784  0.10458817  0.02784103     0.04800
C292        C  0.81919545  0.09286741  0.01085533     0.20200
H293        H  0.81571726  0.19390826  0.48459158     0.09900
C294        C  0.82163316  0.07080779  0.48433449    -0.16000
C295        C  0.84860409  0.04550532  0.48884592     0.02900
C296        C  0.87400211  0.04204404  0.02039415    -0.11300
C297        C  0.87037086  0.06467215  0.04681149    -0.01400
C298        C  0.84313048  0.08945715  0.04237168    -0.06500
H299        H  0.80347619  0.07374412  0.45974706     0.05900
H300        H  0.88963226  0.06492628  0.07068219     0.09300
Br301      Br  0.87354726  0.14372579  0.47527035    -0.06200
Br302      Br  0.67996126  0.15385989  0.04094693    -0.03200
Br303      Br  0.85043605  0.01748237  0.45009926    -0.00300
Br304      Br  0.84195536  0.11941117  0.07951718    -0.04700
C305        C  0.86988872  0.06700506  0.34936676    -0.12100
C306        C  0.82798662  0.06975697  0.33362420     0.03400
C307        C  0.80618075  0.09755393  0.33419304    -0.12600
C308        C  0.82507156  0.12353542  0.34935395     0.18200
C309        C  0.86755882  0.12149275  0.36356092    -0.09700
C310        C  0.88954915  0.09336765  0.36356035    -0.02600
H311        H  0.77401492  0.09896751  0.32245354     0.04800
C312        C  0.79908030  0.15209918  0.34968399     0.20200
H313        H  0.92149586  0.09191042  0.37566246     0.09900
C314        C  0.76286324  0.15389347  0.37053383    -0.16000
C315        C  0.73585430  0.17963107  0.36981668     0.02900
C316        C  0.74444876  0.20411701  0.34758201    -0.11300
C317        C  0.78011161  0.20179848  0.32608475    -0.01400
C318        C  0.80716788  0.17627309  0.32696614    -0.06500
H319        H  0.75581338  0.13524259  0.38773607     0.05900
H320        H  0.78734443  0.22027186  0.30868612     0.09300
Br321      Br  0.89621810  0.15622307  0.38411350    -0.06200
Br322      Br  0.79820013  0.03701519  0.30953592    -0.03200
Br323      Br  0.68958143  0.18093400  0.40130882    -0.00300
Br324      Br  0.85410465  0.17521847  0.29591515    -0.04700
C325        C  0.74486639  0.31823790  0.35766037    -0.12100
C326        C  0.77110411  0.32149724  0.38887510     0.03400
C327        C  0.79423956  0.34823246  0.39534999    -0.12600
C328        C  0.79132358  0.37218149  0.37162984     0.18200
C329        C  0.76486880  0.36962285  0.34115516    -0.09700
C330        C  0.74146918  0.34320459  0.33469165    -0.02600
H331        H  0.81478348  0.35031897  0.41887301     0.04800
C332        C  0.81841984  0.39897101  0.37715060     0.20200
H333        H  0.72023471  0.34324719  0.31178512     0.09900
C334        C  0.86094140  0.39705712  0.36749235    -0.16000
C335        C  0.88522159  0.42325154  0.36404867     0.02900
C336        C  0.86640756  0.45235041  0.36987342    -0.11300
C337        C  0.82490639  0.45350518  0.38323769    -0.01400
C338        C  0.80096389  0.42710912  0.38672892    -0.06500
H339        H  0.87451994  0.37515998  0.36061503     0.05900
H340        H  0.80969357  0.47458768  0.39017625     0.09300
Br341      Br  0.76061549  0.40134995  0.30678444    -0.06200
Br342      Br  0.77700559  0.29069622  0.42418123    -0.03200
Br343      Br  0.94287666  0.41697762  0.34899332    -0.00300
Br344      Br  0.74349721  0.43065886  0.40243669    -0.04700
C345        C  0.69721313  0.25265394  0.09770544    -0.12100
C346        C  0.72382942  0.24701786  0.12774530     0.03400
C347        C  0.70699095  0.24887097  0.16096008    -0.12600
C348        C  0.66385487  0.25654394  0.16546947     0.18200
C349        C  0.63920759  0.26696052  0.13592124    -0.09700
C350        C  0.65572429  0.26416264  0.10226829    -0.02600
H351        H  0.72767611  0.24352655  0.18361995     0.04800
C352        C  0.64764325  0.25346384  0.20155897     0.20200
H353        H  0.63546318  0.26997964  0.07954877     0.09900
C354        C  0.63156757  0.27888875  0.21928474    -0.16000
C355        C  0.62998700  0.27908876  0.25593037     0.02900
C356        C  0.64856455  0.25487432  0.27547290    -0.11300
C357        C  0.65816474  0.22779465  0.25784086    -0.01400
C358        C  0.65651569  0.22668060  0.22103689    -0.06500
H359        H  0.62355947  0.29952447  0.20523920     0.05900
H360        H  0.67091455  0.20850536  0.27238448     0.09300
Br361      Br  0.58370981  0.28546290  0.13896764    -0.06200
Br362      Br  0.78371685  0.23737112  0.12579427    -0.03200
Br363      Br  0.60652528  0.31431027  0.27854595    -0.00300
Br364      Br  0.67062531  0.18881795  0.19857998    -0.04700
C365        C  0.71851119  0.28948013  0.85055974     0.86400
C366        C  0.68346286  0.28665782  0.87689552    -0.53900
C367        C  0.65863001  0.26132312  0.87312537     0.09300
C368        C  0.67221932  0.23995202  0.84268550     0.20200
C369        C  0.74460407  0.26010094  0.85310988    -0.54600
C370        C  0.72130882  0.23398134  0.84931126     0.09400
C371        C  0.69500808  0.28639854  0.81455951    -0.54100
C372        C  0.66992632  0.26113906  0.81037416     0.10000
H373        H  0.67839615  0.30399133  0.89688587     0.14500
H374        H  0.65258701  0.21905075  0.83916797     0.00200
H375        H  0.77934637  0.26000190  0.85652558     0.14800
H376        H  0.69983071  0.30117596  0.79258035     0.14600
C377        C  0.73917962  0.21108582  0.51628652     0.86400
C378        C  0.69642853  0.21509535  0.99684767    -0.53900
C379        C  0.67600101  0.24182157  0.00331707     0.09300
C380        C  0.70198846  0.26345005  0.52884748     0.20200
C381        C  0.76514387  0.23898822  0.00551691    -0.54600
C382        C  0.74735110  0.26639533  0.51389117     0.09400
C383        C  0.73025632  0.21698410  0.55514608    -0.54100
C384        C  0.71067927  0.24417681  0.56194370     0.10000
H385        H  0.68317507  0.19759735  0.97927647     0.14500
H386        H  0.68603971  0.28556207  0.53407877     0.00200
H387        H  0.79628622  0.23813537  0.99421177     0.14800
H388        H  0.73748263  0.20033917  0.57540915     0.14600
O389        O  0.60802171  0.28171216  0.91185886    -0.74600
O390        O  0.53062495  0.27434750  0.98640939    -0.74600
O391        O  0.61833074  0.27378441  0.98118274    -0.74600
O392        O  0.52040980  0.28399541  0.91687597    -0.74700
O393        O  0.51930970  0.23380317  0.90756395    -0.74600
O394        O  0.61374325  0.22363912  0.97265947    -0.74600
O395        O  0.52588449  0.22430268  0.97699745    -0.74600
O396        O  0.60672666  0.23152260  0.90301449    -0.74600
Ni397      Ni  0.56944114  0.28024413  0.94943203     1.25400
Ni398      Ni  0.56640256  0.22653763  0.93980728     1.25400
C399        C  0.62204684  0.25775437  0.89648000     0.87600
C400        C  0.51276179  0.24863140  0.99198568     0.87600
C401        C  0.63345034  0.24696764  0.98574316     0.87600
C402        C  0.50261470  0.26026460  0.90312762     0.87800
C403        C  0.39244235  0.23518620  0.87123235     0.86400
C404        C  0.43120820  0.23961794  0.89602547    -0.53900
C405        C  0.45907925  0.26141871  0.88639275     0.09300
C406        C  0.44347058  0.27921001  0.85317471     0.20200
C407        C  0.37070211  0.26660538  0.86995445    -0.54600
C408        C  0.39678797  0.28973933  0.86048267     0.09400
C409        C  0.41030542  0.23138271  0.83441770    -0.54100
C410        C  0.43734244  0.25391768  0.82484047     0.10000
H411        H  0.43780379  0.22487288  0.91838063     0.14500
H412        H  0.46519300  0.29774271  0.84552363     0.00200
H413        H  0.33717966  0.27086238  0.87440306     0.14800
H414        H  0.40129766  0.21259007  0.81691282     0.14600
C415        C  0.39969219  0.27110587  0.51302052     0.86400
C416        C  0.44417131  0.27234805  0.99912764    -0.53900
C417        C  0.47094956  0.24948579  0.00937663     0.09300
C418        C  0.44947222  0.22607913  0.53387797     0.20200
C419        C  0.38251464  0.23932403  0.00229811    -0.54600
C420        C  0.40785481  0.21558260  0.51360253     0.09400
C421        C  0.40612406  0.26902389  0.55290477    -0.54100
C422        C  0.43151218  0.24547573  0.56446940     0.10000
H423        H  0.45324650  0.28987324  0.98087871     0.14500
H424        H  0.47068470  0.20700593  0.54246837     0.00200
H425        H  0.35029974  0.23527448  0.99158332     0.14800
H426        H  0.39134240  0.28502294  0.57064840     0.14600
C427        C  0.89011742  0.48112411  0.86020226     0.86400
C428        C  0.93178171  0.48449903  0.88140536    -0.53900
C429        C  0.95733341  0.00757693  0.87155318     0.09300
C430        C  0.93663323  0.02739743  0.84149639     0.20200
C431        C  0.86790250  0.51213634  0.86422426    -0.54600
C432        C  0.89110664  0.03646636  0.85363301     0.09400
C433        C  0.90247813  0.48021496  0.82173877    -0.54100
C434        C  0.92629609  0.00422787  0.81139247     0.10000
H435        H  0.94127705  0.46870744  0.90210017     0.14500
H436        H  0.95653794  0.04684694  0.83356509     0.00200
H437        H  0.83564968  0.01529154  0.87286970     0.14800
H438        H  0.89388607  0.46133046  0.80429750     0.14600
C439        C  0.90685786  0.01615090  0.52450896     0.86400
C440        C  0.94305089  0.01891200  0.99878322    -0.53900
C441        C  0.97328852  0.49636682  0.00079795     0.09300
C442        C  0.96443493  0.47234360  0.52923012     0.20200
C443        C  0.88830281  0.98434561  0.01856798    -0.54600
C444        C  0.91765328  0.46125908  0.52102095     0.09400
C445        C  0.92991874  0.01355362  0.56062482    -0.54100
C446        C  0.96093621  0.49180123  0.56311848     0.10000
H447        H  0.94470951  0.03760963  0.98044063     0.14500
H448        H  0.98867417  0.45383826  0.53146320     0.00200
H449        H  0.85410352  0.48021539  0.01475851     0.14800
H450        H  0.92195493  0.02626614  0.58385529     0.14600
O451        O  0.11252812  0.47441782  0.95983328    -0.74600
O452        O  0.01975055  0.48219751  0.89260895    -0.74600
O453        O  0.10826137  0.48143390  0.89017492    -0.74600
O454        O  0.02485316  0.47372120  0.96266318    -0.74700
O455        O  0.02630851  0.02394764  0.97130356    -0.74600
O456        O  0.10546590  0.03166140  0.89792993    -0.74600
O457        O  0.01746370  0.03237348  0.90160557    -0.74600
O458        O  0.11501928  0.02473713  0.96748161    -0.74600
Ni459      Ni  0.06619333  0.47618278  0.92600041     1.25400
Ni460      Ni  0.06603754  0.02996683  0.93488739     1.25400
C461        C  0.13155925  0.49827352  0.97215717     0.87600
C462        C  0.00130275  0.50807825  0.88787281     0.87600
C463        C  0.12264450  0.50804300  0.88402161     0.87600
C464        C  0.01075965  0.49771225  0.97787888     0.87800
C465        C  0.22192706  0.04531058  0.84962348     0.86400
C466        C  0.18413310  0.03937851  0.87182972    -0.53900
C467        C  0.16246937  0.51312448  0.86428596     0.09300
C468        C  0.18367811  0.49348283  0.83475496     0.20200
C469        C  0.25106044  0.01712046  0.85384672    -0.54600
C470        C  0.23188777  0.48982919  0.84608005     0.09400
C471        C  0.20261982  0.04281823  0.81193256    -0.54100
C472        C  0.18619310  0.51503791  0.80290821     0.10000
H473        H  0.17464938  0.05561584  0.89182612     0.14500
H474        H  0.16695231  0.47176397  0.82841725     0.00200
H475        H  0.28440110  0.51892268  0.86259480     0.14800
H476        H  0.20409689  0.06013925  0.79232055     0.14600
C477        C  0.24103902  0.46349619  0.49069897     0.87000
C478        C  0.19940039  0.47149750  0.97143535    -0.53900
C479        C  0.17605276  0.99392400  0.98656343     0.09300
C480        C  0.19903109  0.00847235  0.51972836     0.20200
C481        C  0.26634954  0.49348628  0.99360836    -0.54600
C482        C  0.24482782  0.01714674  0.50891381     0.09400
C483        C  0.22845634  0.45787385  0.52868870    -0.54100
C484        C  0.20802344  0.98131343  0.54461368     0.10000
H485        H  0.18800934  0.45885233  0.94820748     0.14500
H486        H  0.18124110  0.02759662  0.53166944     0.00200
H487        H  0.29936988  0.99590317  0.98690807     0.14800
H488        H  0.23473707  0.43644082  0.54172091     0.14600
C489        C  0.19877208  0.98068771  0.58272991    -0.12100
C490        C  0.22657609  0.46616477  0.60801257     0.03400
C491        C  0.21638496  0.46618541  0.64327726    -0.12600
C492        C  0.18102396  0.98235011  0.65499304     0.18200
C493        C  0.15410705  0.99755589  0.63038464    -0.09700
C494        C  0.16222735  0.99582223  0.59451948    -0.02600
H495        H  0.23858746  0.45590022  0.66234670     0.04800
C496        C  0.18048121  0.48957080  0.69289864     0.20200
H497        H  0.14072357  0.00739619  0.57603383     0.09900
C498        C  0.21276783  0.00871746  0.70623410    -0.16000
C499        C  0.21672997  0.01575984  0.74176146     0.02900
C500        C  0.18572148  0.50501131  0.76519704    -0.11300
C501        C  0.15416982  0.48465596  0.75190736    -0.01400
C502        C  0.15172128  0.47661016  0.71598491    -0.06500
H503        H  0.23612519  0.01763647  0.68871390     0.05900
H504        H  0.13104067  0.47534546  0.76927769     0.09300
Br505      Br  0.10955960  0.02415378  0.64493874    -0.06200
Br506      Br  0.28267777  0.45013693  0.59896572    -0.03200
Br507      Br  0.26834337  0.03786054  0.75490838    -0.00300
Br508      Br  0.10965343  0.44758422  0.69951551    -0.04700
C509        C  0.94106920  0.00593062  0.77475829    -0.12100
C510        C  0.91413840  0.99708507  0.74563701     0.03400
C511        C  0.93119025  0.99295391  0.71270530    -0.12600
C512        C  0.97465816  0.49807816  0.70728427     0.18200
C513        C  0.00059308  0.51007336  0.73531579    -0.09700
C514        C  0.98389285  0.51339697  0.76887549    -0.02600
H515        H  0.91011712  0.98574633  0.69088879     0.04800
C516        C  0.98968882  0.49262346  0.67118152     0.20200
H517        H  0.00486628  0.52082331  0.79062166     0.09900
C518        C  0.00117526  0.01758574  0.65114522    -0.16000
C519        C  0.00047785  0.01553101  0.61448501     0.02900
C520        C  0.98527185  0.48877853  0.59721903    -0.11300
C521        C  0.97966252  0.46260990  0.61713829    -0.01400
C522        C  0.98250489  0.46428956  0.65398915    -0.06500
H523        H  0.00712119  0.03945882  0.66372451     0.05900
H524        H  0.96849946  0.44180124  0.60437441     0.09300
Br525      Br  0.05878733  0.52179589  0.72968896    -0.06200
Br526      Br  0.85331953  0.99130367  0.74788279    -0.03200
Br527      Br  0.01356769  0.05157251  0.58882537    -0.00300
Br528      Br  0.97165786  0.42812551  0.67991864    -0.04700
C529        C  0.38768147  0.18518930  0.51807888    -0.12100
C530        C  0.39872158  0.15949241  0.99807768     0.03400
C531        C  0.37438638  0.13265137  0.99977479    -0.12600
C532        C  0.33923345  0.13083237  0.52176438     0.18200
C533        C  0.33009363  0.15598318  0.54343782    -0.09700
C534        C  0.35361245  0.18287891  0.54091032    -0.02600
H535        H  0.38244456  0.11330784  0.98344371     0.04800
C536        C  0.31274994  0.10260374  0.52175346     0.20200
H537        H  0.34477652  0.20235721  0.55648671     0.09900
C538        C  0.33090878  0.07573502  0.53516104    -0.16000
C539        C  0.30823996  0.04823443  0.53342545     0.02900
C540        C  0.26646538  0.04693871  0.51743429    -0.11300
C541        C  0.24718781  0.07430090  0.00620210    -0.01400
C542        C  0.27013723  0.10184261  0.00773964    -0.06500
H543        H  0.36314439  0.07611359  0.54685120     0.05900
H544        H  0.21523506  0.07391296  0.99397788     0.09300
Br545      Br  0.28650124  0.15457483  0.57750345    -0.06200
Br546      Br  0.44581248  0.16057547  0.96750130    -0.03200
Br547      Br  0.33576761  0.01352774  0.55470767    -0.00300
Br548      Br  0.24323459  0.13731384  0.98774108    -0.04700
C549        C  0.26073485  0.43463052  0.47508808    -0.12100
C550        C  0.30037944  0.43247839  0.95832659     0.03400
C551        C  0.32105118  0.40419701  0.95652839    -0.12600
C552        C  0.30186531  0.37780359  0.46902306     0.18200
C553        C  0.25960702  0.37932963  0.48020905    -0.09700
C554        C  0.23879819  0.40728232  0.48126389    -0.02600
H555        H  0.35315851  0.40301424  0.94691498     0.04800
C556        C  0.32858984  0.35076173  0.47651761     0.20200
H557        H  0.20685299  0.40797759  0.49142611     0.09900
C558        C  0.36221083  0.35379892  0.50162548    -0.16000
C559        C  0.38566083  0.32859047  0.51323052     0.02900
C560        C  0.37420914  0.29896251  0.50083485    -0.11300
C561        C  0.34214417  0.29648187  0.97386531    -0.01400
C562        C  0.31975297  0.32199647  0.96156567    -0.06500
H563        H  0.37003434  0.37603986  0.51260767     0.05900
H564        H  0.33502705  0.27502168  0.96098336     0.09300
Br565      Br  0.23165082  0.34555757  0.50116930    -0.06200
Br566      Br  0.32562686  0.46488299  0.93294214    -0.03200
Br567      Br  0.43394248  0.33725506  0.54482999    -0.00300
Br568      Br  0.27873205  0.31611366  0.92349456    -0.04700
C569        C  0.25662783  0.46027706  0.84570687    -0.12100
C570        C  0.29966282  0.45794404  0.83471966     0.03400
C571        C  0.32185285  0.43017010  0.83684739    -0.12600
C572        C  0.30215490  0.40370241  0.84819974     0.18200
C573        C  0.25884801  0.40557072  0.85772573    -0.09700
C574        C  0.23684934  0.43356923  0.85677230    -0.02600
H575        H  0.35469413  0.42902811  0.82866133     0.04800
C576        C  0.32785144  0.37483457  0.84975446     0.20200
H577        H  0.20411641  0.43445524  0.86517874     0.09900
C578        C  0.36315222  0.37244835  0.87382814    -0.16000
C579        C  0.38760908  0.34552706  0.87658528     0.02900
C580        C  0.37787237  0.32058618  0.85424957    -0.11300
C581        C  0.34407858  0.32357880  0.82888205    -0.01400
C582        C  0.31949520  0.35035387  0.82629072    -0.06500
H583        H  0.37135694  0.39151246  0.89089653     0.05900
H584        H  0.33617110  0.30462520  0.81141956     0.09300
Br585      Br  0.22776394  0.37092522  0.87254340    -0.06200
Br586      Br  0.33021732  0.49030135  0.81342373    -0.03200
Br587      Br  0.43186055  0.34298464  0.91282906    -0.00300
Br588      Br  0.27598569  0.35278264  0.78937586    -0.04700
C589        C  0.36621218  0.20761696  0.88136197    -0.12100
C590        C  0.38440535  0.17790473  0.88005782     0.03400
C591        C  0.35844780  0.15250103  0.88282421    -0.12600
C592        C  0.31472299  0.15581008  0.88775554     0.18200
C593        C  0.29748116  0.18472246  0.89412438    -0.09700
C594        C  0.32316905  0.21041052  0.89106664    -0.02600
H595        H  0.37195347  0.13001611  0.87890155     0.04800
C596        C  0.28726650  0.12952487  0.87992478     0.20200
H597        H  0.30838287  0.23219989  0.89549663     0.09900
C598        C  0.28715970  0.10523425  0.90316148    -0.16000
C599        C  0.26589871  0.07827820  0.89384034     0.02900
C600        C  0.24450337  0.07505805  0.86036477    -0.11300
C601        C  0.24418669  0.10031129  0.83772813    -0.01400
C602        C  0.26577557  0.12697261  0.84702608    -0.06500
H603        H  0.30458447  0.10701678  0.92828076     0.05900
H604        H  0.22776348  0.10028690  0.81253800     0.09300
Br605      Br  0.23843075  0.19002019  0.90497910    -0.06200
Br606      Br  0.44380109  0.16938600  0.87275319    -0.03200
Br607      Br  0.26910023  0.04661037  0.92793975    -0.00300
Br608      Br  0.26752458  0.15853492  0.81252525    -0.04700
C609        C  0.43785766  0.23964964  0.60297346    -0.12100
C610        C  0.40378495  0.24376815  0.62615830     0.03400
C611        C  0.41235279  0.24590199  0.66226565    -0.12600
C612        C  0.45402340  0.24263655  0.67667241     0.18200
C613        C  0.48683317  0.23342430  0.65429549    -0.09700
C614        C  0.47890526  0.23293920  0.61757659    -0.02600
H615        H  0.38610745  0.25042061  0.67940332     0.04800
C616        C  0.46081532  0.24848386  0.71511138     0.20200
H617        H  0.50511042  0.22825480  0.60049674     0.09900
C618        C  0.47442813  0.22487432  0.73732433    -0.16000
C619        C  0.47264462  0.22802748  0.77380992     0.02900
C620        C  0.45413105  0.25427888  0.78877400    -0.11300
C621        C  0.44418953  0.27895986  0.76691534    -0.01400
C622        C  0.44813529  0.27642657  0.73042780    -0.06500
H623        H  0.48485691  0.20340364  0.72635151     0.05900
H624        H  0.43088229  0.29959431  0.77791797     0.09300
Br625      Br  0.54227334  0.22092212  0.67248785    -0.06200
Br626      Br  0.34423934  0.24572074  0.61118691    -0.03200
Br627      Br  0.49693095  0.19601265  0.80183668    -0.00300
Br628      Br  0.43428508  0.31144363  0.70243926    -0.04700
C629        C  0.90195400  0.42938878  0.52219405    -0.12100
C630        C  0.90719568  0.40860232  0.99428954     0.03400
C631        C  0.88273367  0.38174428  0.99230677    -0.12600
C632        C  0.85289165  0.37536106  0.51792045     0.18200
C633        C  0.84964973  0.39523784  0.54684969    -0.09700
C634        C  0.87384004  0.42196480  0.54872021    -0.02600
H635        H  0.88614790  0.36624224  0.97029436     0.04800
C636        C  0.82593397  0.34761828  0.51502366     0.20200
H637        H  0.86934365  0.43775867  0.57030763     0.09900
C638        C  0.84279592  0.32033384  0.52798131    -0.16000
C639        C  0.81754965  0.29418512  0.52903049     0.02900
C640        C  0.77421385  0.29463342  0.51577098    -0.11300
C641        C  0.75709191  0.32234034  0.00348810    -0.01400
C642        C  0.78261899  0.34863479  0.00294763    -0.06500
H643        H  0.87557212  0.31966289  0.53851977     0.05900
H644        H  0.72411524  0.32338836  0.99352623     0.09300
Br645      Br  0.81158087  0.38706780  0.58394070    -0.06200
Br646      Br  0.94516985  0.41698069  0.95735909    -0.03200
Br647      Br  0.84429353  0.25988482  0.55209247    -0.00300
Br648      Br  0.75726554  0.38558253  0.98570508    -0.04700
C649        C  0.75775924  0.17936778  0.51001279    -0.12100
C650        C  0.73548685  0.15295676  0.52058087     0.03400
C651        C  0.75453125  0.12431412  0.51780407    -0.12600
C652        C  0.79539619  0.12117373  0.50466729     0.18200
C653        C  0.81657912  0.14664844  0.99218107    -0.09700
C654        C  0.79765308  0.17527422  0.99438127    -0.02600
H655        H  0.73846016  0.10458853  0.52783695     0.04800
C656        C  0.81918867  0.09287078  0.51082358     0.20200
H657        H  0.81575555  0.19391099  0.98465031     0.09900
C658        C  0.82165908  0.07081691  0.98435216    -0.16000
C659        C  0.84862976  0.04551236  0.98886278     0.02900
C660        C  0.87399842  0.04204915  0.52037294    -0.11300
C661        C  0.87039157  0.06469626  0.54676344    -0.01400
C662        C  0.84315572  0.08947741  0.54233179    -0.06500
H663        H  0.80352344  0.07376379  0.95976276     0.05900
H664        H  0.88971601  0.06496234  0.57065150     0.09300
Br665      Br  0.87359585  0.14373169  0.97536110    -0.06200
Br666      Br  0.67996772  0.15385993  0.54095671    -0.03200
Br667      Br  0.85047972  0.01750310  0.95010410    -0.00300
Br668      Br  0.84201083  0.11945199  0.57945531    -0.04700
C669        C  0.86989299  0.06699214  0.84937476    -0.12100
C670        C  0.82799640  0.06974702  0.83362362     0.03400
C671        C  0.80619019  0.09754386  0.83419490    -0.12600
C672        C  0.82507525  0.12352171  0.84936993     0.18200
C673        C  0.86755629  0.12147553  0.86358942    -0.09700
C674        C  0.88954766  0.09335098  0.86358370    -0.02600
H675        H  0.77402891  0.09895998  0.82244740     0.04800
C676        C  0.79908574  0.15208613  0.84970015     0.20200
H677        H  0.92148925  0.09189062  0.87569479     0.09900
C678        C  0.76286073  0.15387860  0.87054112    -0.16000
C679        C  0.73585462  0.17961780  0.86982313     0.02900
C680        C  0.74445937  0.20410664  0.84759547    -0.11300
C681        C  0.78013105  0.20178995  0.82610739    -0.01400
C682        C  0.80718535  0.17626367  0.82699083    -0.06500
H683        H  0.75580268  0.13522539  0.88773719     0.05900
H684        H  0.78737224  0.22026529  0.80871401     0.09300
Br685      Br  0.89620316  0.15619951  0.88416911    -0.06200
Br686      Br  0.79821835  0.03700787  0.80952390    -0.03200
Br687      Br  0.68957195  0.18091842  0.90130599    -0.00300
Br688      Br  0.85413695  0.17521302  0.79595444    -0.04700
C689        C  0.74487476  0.31822747  0.85766835    -0.12100
C690        C  0.77110589  0.32148731  0.88888660     0.03400
C691        C  0.79424022  0.34822239  0.89536460    -0.12600
C692        C  0.79133042  0.37217084  0.87164364     0.18200
C693        C  0.76488343  0.36961150  0.84116450    -0.09700
C694        C  0.74148473  0.34319310  0.83469766    -0.02600
H695        H  0.81477890  0.35030914  0.91889069     0.04800
C696        C  0.81842679  0.39895983  0.87716816     0.20200
H697        H  0.72025732  0.34323459  0.81178713     0.09900
C698        C  0.86095064  0.39704486  0.86751602    -0.16000
C699        C  0.88523189  0.42323890  0.86407362     0.02900
C700        C  0.86641634  0.45233807  0.86989274    -0.11300
C701        C  0.82491407  0.45349403  0.88325473    -0.01400
C702        C  0.80097026  0.42709828  0.88674444    -0.06500
H703        H  0.87453010  0.37514738  0.86064175     0.05900
H704        H  0.80970187  0.47457699  0.89019185     0.09300
Br705      Br  0.76063957  0.40133805  0.80679269    -0.06200
Br706      Br  0.77700076  0.29068657  0.92419315    -0.03200
Br707      Br  0.94289040  0.41696405  0.84902663    -0.00300
Br708      Br  0.74350116  0.43064887  0.90244644    -0.04700
C709        C  0.69721214  0.25264421  0.59770829    -0.12100
C710        C  0.72382765  0.24700503  0.62774774     0.03400
C711        C  0.70698886  0.24885446  0.66096259    -0.12600
C712        C  0.66385267  0.25652628  0.66547305     0.18200
C713        C  0.63920468  0.26694413  0.63592579    -0.09700
C714        C  0.65572198  0.26415035  0.60227237    -0.02600
H715        H  0.72767453  0.24350900  0.68362173     0.04800
C716        C  0.64764340  0.25344651  0.70156353     0.20200
H717        H  0.63546111  0.26996904  0.57955363     0.09900
C718        C  0.63156987  0.27887198  0.71928970    -0.16000
C719        C  0.62999612  0.27907403  0.75593576     0.02900
C720        C  0.64857744  0.25486079  0.77547783    -0.11300
C721        C  0.65817583  0.22778044  0.75784643    -0.01400
C722        C  0.65652021  0.22666441  0.72104247    -0.06500
H723        H  0.62355869  0.29950710  0.70524362     0.05900
H724        H  0.67092842  0.20849198  0.77239013     0.09300
Br725      Br  0.58370547  0.28544377  0.63897450    -0.06200
Br726      Br  0.78371512  0.23735914  0.62579674    -0.03200
Br727      Br  0.60653558  0.31429565  0.77855202    -0.00300
Br728      Br  0.67062813  0.18880107  0.69858637    -0.04700
C729        C  0.71849887  0.78949286  0.35055161     0.86400
C730        C  0.68345513  0.78666939  0.37689135    -0.53900
C731        C  0.65862260  0.76133443  0.37312297     0.09300
C732        C  0.67220679  0.73996463  0.34268007     0.20200
C733        C  0.74459260  0.76011370  0.35309751    -0.54600
C734        C  0.72129702  0.73399421  0.34930044     0.09400
C735        C  0.69499033  0.78641218  0.31455368    -0.54100
C736        C  0.66990854  0.76115275  0.31036946     0.10000
H737        H  0.67839159  0.80400208  0.39688338     0.14500
H738        H  0.65257480  0.71906320  0.33916397     0.00200
H739        H  0.77933542  0.76001448  0.35650940     0.14800
H740        H  0.69981220  0.80118919  0.29257393     0.14600
C741        C  0.73918096  0.71108475  0.01628902     0.86400
C742        C  0.69642898  0.71509943  0.49684987    -0.53900
C743        C  0.67600447  0.74182610  0.50332028     0.09300
C744        C  0.70198561  0.76344870  0.02884399     0.20200
C745        C  0.76514898  0.73898833  0.50552005    -0.54600
C746        C  0.74734748  0.76639429  0.01388734     0.09400
C747        C  0.73025550  0.71698586  0.05514758    -0.54100
C748        C  0.71067790  0.74417877  0.06194208     0.10000
H749        H  0.68317278  0.69760187  0.47927957     0.14500
H750        H  0.68603545  0.78556062  0.03407275     0.00200
H751        H  0.79629569  0.73813292  0.49422241     0.14800
H752        H  0.73748104  0.70034233  0.07541232     0.14600
O753        O  0.60802079  0.78171959  0.41186524    -0.74600
O754        O  0.53062559  0.77434706  0.48641636    -0.74600
O755        O  0.61833198  0.77378881  0.48118895    -0.74600
O756        O  0.52040947  0.78399916  0.41688457    -0.74700
O757        O  0.51931149  0.73380735  0.40756858    -0.74600
O758        O  0.61374725  0.72364395  0.47266147    -0.74600
O759        O  0.52588837  0.72430265  0.47699993    -0.74600
O760        O  0.60672729  0.73153057  0.40301638    -0.74600
Ni761      Ni  0.56944135  0.78024788  0.44943932     1.25400
Ni762      Ni  0.56640567  0.72654184  0.43981007     1.25400
C763        C  0.62204474  0.75776324  0.39648257     0.87600
C764        C  0.51276242  0.74863010  0.49198856     0.87600
C765        C  0.63345320  0.74697233  0.48574711     0.87600
C766        C  0.50261515  0.76026864  0.40313510     0.87800
C767        C  0.39244655  0.73518850  0.37123527     0.86400
C768        C  0.43120958  0.73962097  0.39603134    -0.53900
C769        C  0.45907988  0.76142317  0.38640126     0.09300
C770        C  0.44347355  0.77921503  0.35318351     0.20200
C771        C  0.37070422  0.76660673  0.36995721    -0.54600
C772        C  0.39678926  0.78974199  0.36048863     0.09400
C773        C  0.41031440  0.73138695  0.33442186    -0.54100
C774        C  0.43735127  0.75392342  0.32484812     0.10000
H775        H  0.43780480  0.72487490  0.41838578     0.14500
H776        H  0.46519550  0.79774890  0.34553518     0.00200
H777        H  0.33718083  0.77086255  0.37440412     0.14800
H778        H  0.40131120  0.71259410  0.31691581     0.14600
C779        C  0.39969983  0.77111076  0.01303943     0.86400
C780        C  0.44416721  0.77234308  0.49911662    -0.53900
C781        C  0.47094515  0.74948265  0.50937157     0.09300
C782        C  0.44947945  0.72608152  0.03388999     0.20200
C783        C  0.38251126  0.73931814  0.50228137    -0.54600
C784        C  0.40785583  0.71558720  0.01362170     0.09400
C785        C  0.40614049  0.76902927  0.05292297    -0.54100
C786        C  0.43152897  0.74548003  0.06448412     0.10000
H787        H  0.45324531  0.78986760  0.48086762     0.14500
H788        H  0.47069146  0.70700726  0.04247803     0.00200
H789        H  0.35029843  0.73526719  0.49156329     0.14800
H790        H  0.39136224  0.78502797  0.07066900     0.14600
C791        C  0.89011600  0.98113705  0.36018302     0.86400
C792        C  0.93178056  0.98450838  0.38138662    -0.53900
C793        C  0.95732691  0.50758799  0.37155059     0.09300
C794        C  0.93662727  0.52741297  0.34149713     0.20200
C795        C  0.86790288  0.01214914  0.36421161    -0.54600
C796        C  0.89109975  0.53648075  0.35363381     0.09400
C797        C  0.90247650  0.98023337  0.32171933    -0.54100
C798        C  0.92629029  0.50424742  0.31138958     0.10000
H799        H  0.94127531  0.96871350  0.40207827     0.14500
H800        H  0.95653302  0.54686290  0.33356894     0.00200
H801        H  0.83564516  0.51530361  0.37287135     0.14800
H802        H  0.89388275  0.96135211  0.30427372     0.14600
C803        C  0.90687031  0.51614527  0.02453482     0.86400
C804        C  0.94303719  0.51891561  0.49877301    -0.53900
C805        C  0.97328299  0.99637367  0.50078297     0.09300
C806        C  0.96444458  0.97233325  0.02922934     0.20200
C807        C  0.88829215  0.48434781  0.51855997    -0.54600
C808        C  0.91766018  0.96125359  0.02102275     0.09400
C809        C  0.92993746  0.51354597  0.06065089    -0.54100
C810        C  0.96095607  0.99178532  0.06312029     0.10000
H811        H  0.94469381  0.53761091  0.48042573     0.14500
H812        H  0.98868122  0.95382495  0.03145672     0.00200
H813        H  0.85409707  0.98021387  0.51473721     0.14800
H814        H  0.92200341  0.52624987  0.08386594     0.14600
O815        O  0.11252444  0.97442219  0.45982139    -0.74600
O816        O  0.01974830  0.98220658  0.39259647    -0.74600
O817        O  0.10825992  0.98144086  0.39016433    -0.74600
O818        O  0.02484945  0.97372772  0.46265018    -0.74700
O819        O  0.02630061  0.52395446  0.47130343    -0.74600
O820        O  0.10546159  0.53166767  0.39793241    -0.74600
O821        O  0.01745827  0.53238221  0.40160550    -0.74600
O822        O  0.11501164  0.52474153  0.46748344    -0.74600
Ni823      Ni  0.06619038  0.97618958  0.42598827     1.25400
Ni824      Ni  0.06603122  0.52997342  0.43488841     1.25400
C825        C  0.13155642  0.99827706  0.47214650     0.87600
C826        C  0.00130166  0.00808785  0.38786102     0.87600
C827        C  0.12264560  0.00804969  0.38401340     0.87600
C828        C  0.01075669  0.99771860  0.47786644     0.87800
C829        C  0.22192895  0.54531313  0.34963320     0.86400
C830        C  0.18413243  0.53938283  0.37183751    -0.53900
C831        C  0.16247346  0.01313004  0.36428142     0.09300
C832        C  0.18368635  0.99348585  0.33475492     0.20200
C833        C  0.25106099  0.51712285  0.35386022    -0.54600
C834        C  0.23189351  0.98983181  0.34608602     0.09400
C835        C  0.20262352  0.54281894  0.31194211    -0.54100
C836        C  0.18620887  0.01503873  0.30290651     0.10000
H837        H  0.17464709  0.55562136  0.39183198     0.14500
H838        H  0.16696068  0.97176684  0.32841756     0.00200
H839        H  0.28440730  0.01892417  0.36260216     0.14800
H840        H  0.20409783  0.56014184  0.29232825     0.14600
C841        C  0.24105018  0.96349556  0.99069272     0.87000
C842        C  0.19939710  0.97149934  0.47142633    -0.53900
C843        C  0.17604341  0.49392690  0.48656545     0.09300
C844        C  0.19903845  0.50847250  0.01973547     0.20200
C845        C  0.26634500  0.99348533  0.49360667    -0.54600
C846        C  0.24483316  0.51714770  0.00891619     0.09400
C847        C  0.22847431  0.95787495  0.02868450    -0.54100
C848        C  0.20803616  0.48131489  0.04462200     0.10000
H849        H  0.18800766  0.95885527  0.44819714     0.14500
H850        H  0.18124914  0.52759690  0.03167693     0.00200
H851        H  0.29936197  0.49590287  0.48692446     0.14800
H852        H  0.23475830  0.93644289  0.04171753     0.14600
C853        C  0.19878982  0.48068980  0.08273943    -0.12100
C854        C  0.22660565  0.96616793  0.10800816     0.03400
C855        C  0.21641798  0.96618676  0.14327370    -0.12600
C856        C  0.18104771  0.48235012  0.15500373     0.18200
C857        C  0.15413081  0.49755841  0.13039773    -0.09700
C858        C  0.16224749  0.49582549  0.09453192    -0.02600
H859        H  0.23862241  0.95590120  0.16234128     0.04800
C860        C  0.18051485  0.98956711  0.19289862     0.20200
H861        H  0.14074286  0.50740075  0.07604824     0.09900
C862        C  0.21278514  0.50871930  0.20624577    -0.16000
C863        C  0.21674317  0.51576255  0.24177300     0.02900
C864        C  0.18574560  0.00500921  0.26519646    -0.11300
C865        C  0.15420246  0.98464773  0.25190620    -0.01400
C866        C  0.15175870  0.97660113  0.21598404    -0.06500
H867        H  0.23614037  0.51764220  0.18872594     0.05900
H868        H  0.13107493  0.97533350  0.26927560     0.09300
Br869      Br  0.10958992  0.52415951  0.14495704    -0.06200
Br870      Br  0.28270776  0.95014307  0.09895686    -0.03200
Br871      Br  0.26835019  0.53787056  0.25492084    -0.00300
Br872      Br  0.10970183  0.94756775  0.19951348    -0.04700
C873        C  0.94106923  0.50595204  0.27475778    -0.12100
C874        C  0.91413778  0.49711595  0.24563356     0.03400
C875        C  0.93119326  0.49297805  0.21270427    -0.12600
C876        C  0.97467416  0.99808408  0.20727831     0.18200
C877        C  0.00061198  0.01007143  0.23531263    -0.09700
C878        C  0.98390677  0.01340289  0.26886969    -0.02600
H879        H  0.91011963  0.48577650  0.19088559     0.04800
C880        C  0.98971024  0.99261637  0.17117962     0.20200
H881        H  0.00488101  0.02082177  0.29061874     0.09900
C882        C  0.00121382  0.51756959  0.15114984    -0.16000
C883        C  0.00051995  0.51550721  0.11448988     0.02900
C884        C  0.98529759  0.98875922  0.09721787    -0.11300
C885        C  0.97966799  0.96259607  0.11714282    -0.01400
C886        C  0.98250732  0.96428200  0.15399345    -0.06500
H887        H  0.00717342  0.53944294  0.16372398     0.05900
H888        H  0.96848904  0.94179019  0.10438361     0.09300
Br889      Br  0.05881683  0.02177062  0.22969369    -0.06200
Br890      Br  0.85331528  0.49135270  0.24787509    -0.03200
Br891      Br  0.01363206  0.55153910  0.08882079    -0.00300
Br892      Br  0.97162452  0.92812796  0.17993031    -0.04700
C893        C  0.38768309  0.68519322  0.01809550    -0.12100
C894        C  0.39871299  0.65948582  0.49807466     0.03400
C895        C  0.37437671  0.63264567  0.49977738    -0.12600
C896        C  0.33923764  0.63083438  0.02177467     0.18200
C897        C  0.33009182  0.65598488  0.04344683    -0.09700
C898        C  0.35360986  0.68288139  0.04092280    -0.02600
H899        H  0.38243236  0.61330005  0.48344851     0.04800
C900        C  0.31275517  0.60260504  0.02175946     0.20200
H901        H  0.34476933  0.70235932  0.05649812     0.09900
C902        C  0.33091265  0.57573623  0.03516793    -0.16000
C903        C  0.30824473  0.54823529  0.03342911     0.02900
C904        C  0.26647135  0.54693964  0.01743556    -0.11300
C905        C  0.24717657  0.57430105  0.50621349    -0.01400
C906        C  0.27012729  0.60184226  0.50775033    -0.06500
H907        H  0.36314703  0.57611490  0.04686108     0.05900
H908        H  0.21522433  0.57391342  0.49398814     0.09300
Br909      Br  0.28649004  0.65457580  0.07750444    -0.06200
Br910      Br  0.44580344  0.66056310  0.46749753    -0.03200
Br911      Br  0.33577237  0.51352765  0.05470900    -0.00300
Br912      Br  0.24322599  0.63731403  0.48775182    -0.04700
C913        C  0.26074485  0.93462987  0.97508225    -0.12100
C914        C  0.30037617  0.93247839  0.45832254     0.03400
C915        C  0.32104662  0.90419654  0.45652195    -0.12600
C916        C  0.30187895  0.87780487  0.96902724     0.18200
C917        C  0.25961918  0.87932997  0.98020959    -0.09700
C918        C  0.23880882  0.90728201  0.98126079    -0.02600
H919        H  0.35315457  0.90301434  0.44691052     0.04800
C920        C  0.32860363  0.85076504  0.97652746     0.20200
H921        H  0.20686356  0.90797757  0.99142265     0.09900
C922        C  0.36221606  0.85380315  0.00164284    -0.16000
C923        C  0.38566491  0.82859530  0.01325129     0.02900
C924        C  0.37421661  0.79896715  0.00085403    -0.11300
C925        C  0.34213312  0.79647745  0.47385249    -0.01400
C926        C  0.31974082  0.82199255  0.46155512    -0.06500
H927        H  0.37003507  0.87604431  0.01262634     0.05900
H928        H  0.33501033  0.77501688  0.46097393     0.09300
Br929      Br  0.23166189  0.84555722  0.00116757    -0.06200
Br930      Br  0.32562926  0.96488463  0.43294436    -0.03200
Br931      Br  0.43394370  0.83726187  0.04485298    -0.00300
Br932      Br  0.27870978  0.81610760  0.42349199    -0.04700
C933        C  0.25663151  0.96027942  0.34571689    -0.12100
C934        C  0.29966550  0.95794435  0.33472857     0.03400
C935        C  0.32185368  0.93017007  0.33685848    -0.12600
C936        C  0.30215449  0.90370406  0.34821404     0.18200
C937        C  0.25884824  0.90557462  0.35774182    -0.09700
C938        C  0.23685179  0.93357371  0.35678648    -0.02600
H939        H  0.35469452  0.92902629  0.32867094     0.04800
C940        C  0.32784912  0.87483571  0.34976828     0.20200
H941        H  0.20411919  0.93446186  0.36519393     0.09900
C942        C  0.36315609  0.87245098  0.37383604    -0.16000
C943        C  0.38761361  0.84552998  0.37659100     0.02900
C944        C  0.37787198  0.82058842  0.35425780    -0.11300
C945        C  0.34407260  0.82357995  0.32889504    -0.01400
C946        C  0.31948807  0.85035447  0.32630664    -0.06500
H947        H  0.37136619  0.89151636  0.39090056     0.05900
H948        H  0.33616208  0.80462612  0.31143404     0.09300
Br949      Br  0.22776064  0.87093232  0.37256316    -0.06200
Br950      Br  0.33021965  0.99029922  0.31342784    -0.03200
Br951      Br  0.43187335  0.84298950  0.41282830    -0.00300
Br952      Br  0.27597233  0.85278243  0.28939666    -0.04700
C953        C  0.36621681  0.70761849  0.38136268    -0.12100
C954        C  0.38441210  0.67790683  0.38006031     0.03400
C955        C  0.35845668  0.65250234  0.38282916    -0.12600
C956        C  0.31473164  0.65581015  0.38775986     0.18200
C957        C  0.29748679  0.68472221  0.39412445    -0.09700
C958        C  0.32317279  0.71041086  0.39106549    -0.02600
H959        H  0.37196398  0.63001773  0.37890839     0.04800
C960        C  0.28727704  0.62952445  0.37992894     0.20200
H961        H  0.30838399  0.73219998  0.39549335     0.09900
C962        C  0.28716111  0.60523728  0.40316965    -0.16000
C963        C  0.26589787  0.57828192  0.39385041     0.02900
C964        C  0.24450734  0.57505970  0.36037249    -0.11300
C965        C  0.24420350  0.60030903  0.33773167    -0.01400
C966        C  0.26579445  0.62696911  0.34702669    -0.06500
H967        H  0.30458140  0.60702188  0.42829176     0.05900
H968        H  0.22778660  0.60028175  0.31253379     0.09300
Br969      Br  0.23843423  0.69001823  0.40497357    -0.06200
Br970      Br  0.44380807  0.66938975  0.37275520    -0.03200
Br971      Br  0.26909188  0.54661653  0.42795316    -0.00300
Br972      Br  0.26755945  0.65852574  0.31252018    -0.04700
C973        C  0.43787912  0.73965324  0.10298765    -0.12100
C974        C  0.40380811  0.74376984  0.12617445     0.03400
C975        C  0.41237870  0.74590475  0.16228133    -0.12600
C976        C  0.45405080  0.74264191  0.17668566     0.18200
C977        C  0.48685975  0.73343180  0.15430716    -0.09700
C978        C  0.47892892  0.73294586  0.11758850    -0.02600
H979        H  0.38613458  0.75042249  0.17942037     0.04800
C980        C  0.46084497  0.74849058  0.21512396     0.20200
H981        H  0.50513320  0.72826341  0.10050704     0.09900
C982        C  0.47445596  0.72488140  0.23733809    -0.16000
C983        C  0.47266731  0.72803507  0.27382331     0.02900
C984        C  0.45414874  0.75428567  0.28878478    -0.11300
C985        C  0.44421272  0.77896725  0.26692551    -0.01400
C986        C  0.44816559  0.77643395  0.23043874    -0.06500
H987        H  0.48488714  0.70341092  0.22636640     0.05900
H988        H  0.43090430  0.79960174  0.27792650     0.09300
Br989      Br  0.54230242  0.72093422  0.17249794    -0.06200
Br990      Br  0.34426152  0.74572002  0.11120589    -0.03200
Br991      Br  0.49695553  0.69602328  0.30185358    -0.00300
Br992      Br  0.43432575  0.81145151  0.20244809    -0.04700
C993        C  0.90195452  0.92938505  0.02219423    -0.12100
C994        C  0.90719303  0.90860801  0.49427552     0.03400
C995        C  0.88273511  0.88174794  0.49229688    -0.12600
C996        C  0.85288588  0.87536031  0.01791979     0.18200
C997        C  0.84964207  0.89523886  0.04684711    -0.09700
C998        C  0.87383679  0.92196369  0.04871877    -0.02600
H999        H  0.88614226  0.86624812  0.47028155     0.04800
C1000       C  0.82592768  0.84761801  0.01502341     0.20200
H1001       H  0.86934045  0.93775830  0.07030520     0.09900
C1002       C  0.84279188  0.82033257  0.02797611    -0.16000
C1003       C  0.81754660  0.79418349  0.02902432     0.02900
C1004       C  0.77420948  0.79463249  0.01576794    -0.11300
C1005       C  0.75710577  0.82233972  0.50348362    -0.01400
C1006       C  0.78263526  0.84863303  0.50294102    -0.06500
H1007       H  0.87556959  0.81966103  0.03851169     0.05900
H1008       H  0.72413102  0.82338750  0.49351683     0.09300
Br1009     Br  0.81156324  0.88707522  0.08393311    -0.06200
Br1010     Br  0.94515168  0.91699193  0.45733586    -0.03200
Br1011     Br  0.84429360  0.75988174  0.05208145    -0.00300
Br1012     Br  0.75728931  0.88557862  0.48568484    -0.04700
C1013       C  0.75776757  0.67936703  0.01002488    -0.12100
C1014       C  0.73548967  0.65295571  0.02058477     0.03400
C1015       C  0.75453767  0.62431336  0.01781814    -0.12600
C1016       C  0.79541448  0.62117366  0.00470391     0.18200
C1017       C  0.81654235  0.64664332  0.49213002    -0.09700
C1018       C  0.79762310  0.67527071  0.49434128    -0.02600
H1019       H  0.73845813  0.60458735  0.02784089     0.04800
C1020       C  0.81919731  0.59286635  0.01085991     0.20200
H1021       H  0.81571115  0.69390543  0.48458824     0.09900
C1022       C  0.82162798  0.57080814  0.48433735    -0.16000
C1023       C  0.84859963  0.54550577  0.48884963     0.02900
C1024       C  0.87400362  0.54204308  0.02040238    -0.11300
C1025       C  0.87036800  0.56467067  0.04681860    -0.01400
C1026       C  0.84312974  0.58945588  0.04237825    -0.06500
H1027       H  0.80347495  0.57374549  0.45974975     0.05900
H1028       H  0.88962992  0.56492297  0.07069621     0.09300
Br1029     Br  0.87353551  0.64371980  0.47526355    -0.06200
Br1030     Br  0.67995908  0.65385870  0.04094094    -0.03200
Br1031     Br  0.85043558  0.51748439  0.45010189    -0.00300
Br1032     Br  0.84195090  0.61941025  0.07952296    -0.04700
C1033       C  0.86988274  0.56700572  0.34937243    -0.12100
C1034       C  0.82797962  0.56975771  0.33363175     0.03400
C1035       C  0.80617528  0.59755536  0.33419929    -0.12600
C1036       C  0.82506861  0.62353742  0.34935681     0.18200
C1037       C  0.86755673  0.62149451  0.36356187    -0.09700
C1038       C  0.88954554  0.59336877  0.36356261    -0.02600
H1039       H  0.77400878  0.59896901  0.32246136     0.04800
C1040       C  0.79907832  0.65210172  0.34968628     0.20200
H1041       H  0.92149312  0.59191154  0.37566293     0.09900
C1042       C  0.76286190  0.65389692  0.37053680    -0.16000
C1043       C  0.73585295  0.67963449  0.36981883     0.02900
C1044       C  0.74444683  0.70411958  0.34758283    -0.11300
C1045       C  0.78010934  0.70180038  0.32608521    -0.01400
C1046       C  0.80716547  0.67627486  0.32696721    -0.06500
H1047       H  0.75581241  0.63524678  0.38773997     0.05900
H1048       H  0.78734171  0.72027306  0.30868569     0.09300
Br1049     Br  0.89621950  0.65622525  0.38411032    -0.06200
Br1050     Br  0.79818991  0.53701552  0.30954665    -0.03200
Br1051     Br  0.68958103  0.68093837  0.40131193    -0.00300
Br1052     Br  0.85410085  0.67521890  0.29591489    -0.04700
C1053       C  0.74486293  0.81824034  0.35765730    -0.12100
C1054       C  0.77110177  0.82149980  0.38887137     0.03400
C1055       C  0.79423991  0.84823408  0.39534433    -0.12600
C1056       C  0.79132552  0.87218225  0.37162304     0.18200
C1057       C  0.76486919  0.86962374  0.34114917    -0.09700
C1058       C  0.74146695  0.84320626  0.33468740    -0.02600
H1059       H  0.81478468  0.85032060  0.41886715     0.04800
C1060       C  0.81842271  0.89897146  0.37714308     0.20200
H1061       H  0.72023194  0.84324883  0.31178145     0.09900
C1062       C  0.86094477  0.89705684  0.36748599    -0.16000
C1063       C  0.88522626  0.92325094  0.36404365     0.02900
C1064       C  0.86641288  0.95235007  0.36986798    -0.11300
C1065       C  0.82491119  0.95350541  0.38323122    -0.01400
C1066       C  0.80096760  0.92710976  0.38672153    -0.06500
H1067       H  0.87452285  0.87515954  0.36060905     0.05900
H1068       H  0.80969888  0.97458796  0.39016987     0.09300
Br1069     Br  0.76061652  0.90135011  0.30677758    -0.06200
Br1070     Br  0.77700142  0.79069997  0.42417892    -0.03200
Br1071     Br  0.94288234  0.91697641  0.34899092    -0.00300
Br1072     Br  0.74350076  0.93066038  0.40242884    -0.04700
C1073       C  0.69721170  0.75264987  0.09770558    -0.12100
C1074       C  0.72382664  0.74701242  0.12774585     0.03400
C1075       C  0.70698706  0.74886505  0.16096030    -0.12600
C1076       C  0.66385113  0.75653898  0.16546910     0.18200
C1077       C  0.63920494  0.76695600  0.13592049    -0.09700
C1078       C  0.65572270  0.76415862  0.10226781    -0.02600
H1079       H  0.72767146  0.74352010  0.18362037     0.04800
C1080       C  0.64763902  0.75346032  0.20155872     0.20200
H1081       H  0.63546263  0.76997625  0.07954820     0.09900
C1082       C  0.63156347  0.77888601  0.21928321    -0.16000
C1083       C  0.62998277  0.77908745  0.25592885     0.02900
C1084       C  0.64856066  0.75487394  0.27547269    -0.11300
C1085       C  0.65816064  0.72779347  0.25784208    -0.01400
C1086       C  0.65651097  0.72667783  0.22103811    -0.06500
H1087       H  0.62355540  0.79952120  0.20523667     0.05900
H1088       H  0.67091020  0.70850473  0.27238667     0.09300
Br1089     Br  0.58370697  0.78545833  0.13896577    -0.06200
Br1090     Br  0.78371405  0.73736498  0.12579611    -0.03200
Br1091     Br  0.60651946  0.81430932  0.27854254    -0.00300
Br1092     Br  0.67061824  0.68881388  0.19858312    -0.04700
C1093       C  0.71850912  0.78948003  0.85055850     0.86400
C1094       C  0.68346143  0.78665716  0.87689472    -0.53900
C1095       C  0.65862941  0.76132199  0.87312520     0.09300
C1096       C  0.67221891  0.73995102  0.84268507     0.20200
C1097       C  0.74460303  0.76010134  0.85310858    -0.54600
C1098       C  0.72130887  0.73398123  0.84931034     0.09400
C1099       C  0.69500552  0.78639787  0.81455861    -0.54100
C1100       C  0.66992462  0.76113802  0.81037359     0.10000
H1101       H  0.67839453  0.80399081  0.89688508     0.14500
H1102       H  0.65258728  0.71904949  0.83916771     0.00200
H1103       H  0.77934550  0.76000307  0.85652443     0.14800
H1104       H  0.69982718  0.80117538  0.79257926     0.14600
C1105       C  0.73917992  0.71108724  0.51628969     0.86400
C1106       C  0.69643075  0.71509503  0.99684589    -0.53900
C1107       C  0.67600286  0.74182088  0.00331644     0.09300
C1108       C  0.70199058  0.76345268  0.52884719     0.20200
C1109       C  0.76514624  0.73898730  0.00551831    -0.54600
C1110       C  0.74735262  0.76639634  0.51388907     0.09400
C1111       C  0.73025960  0.71698853  0.55514926    -0.54100
C1112       C  0.71068294  0.74418174  0.56194496     0.10000
H1113       H  0.68317778  0.69759769  0.97927358     0.14500
H1114       H  0.68604251  0.78556514  0.53407700     0.00200
H1115       H  0.79628942  0.73813449  0.99421434     0.14800
H1116       H  0.73748718  0.70034515  0.57541374     0.14600
O1117       O  0.60802177  0.78171072  0.91185959    -0.74600
O1118       O  0.53062527  0.77434654  0.98641058    -0.74600
O1119       O  0.61833149  0.77378344  0.98118342    -0.74600
O1120       O  0.52041005  0.78399401  0.91687725    -0.74700
O1121       O  0.51930984  0.73380173  0.90756554    -0.74600
O1122       O  0.61374393  0.72363812  0.97266061    -0.74600
O1123       O  0.52588459  0.72430172  0.97699908    -0.74600
O1124       O  0.60672679  0.73152117  0.90301551    -0.74600
Ni1125     Ni  0.56944150  0.78024290  0.94943303     1.25400
Ni1126     Ni  0.56640284  0.72653640  0.93980871     1.25400
C1127       C  0.62204675  0.75775294  0.89648060     0.87600
C1128       C  0.51276165  0.74863056  0.99198691     0.87600
C1129       C  0.63345143  0.74696676  0.98574363     0.87600
C1130       C  0.50261490  0.76026315  0.90312914     0.87800
C1131       C  0.39244270  0.73518521  0.87123317     0.86400
C1132       C  0.43120858  0.73961632  0.89602638    -0.53900
C1133       C  0.45907959  0.76141738  0.88639430     0.09300
C1134       C  0.44347094  0.77920958  0.85317702     0.20200
C1135       C  0.37070257  0.76660445  0.86995636    -0.54600
C1136       C  0.39678835  0.78973872  0.86048538     0.09400
C1137       C  0.41030579  0.73138262  0.83441840    -0.54100
C1138       C  0.43734289  0.75391793  0.82484201     0.10000
H1139       H  0.43780418  0.72487082  0.91838100     0.14500
H1140       H  0.46519346  0.79774244  0.84552659     0.00200
H1141       H  0.33718003  0.77086130  0.87440488     0.14800
H1142       H  0.40129835  0.71259038  0.81691311     0.14600
C1143       C  0.39969314  0.77110455  0.51302280     0.86400
C1144       C  0.44417113  0.77234786  0.99912754    -0.53900
C1145       C  0.47094871  0.74948547  0.00937717     0.09300
C1146       C  0.44947275  0.72607794  0.53388120     0.20200
C1147       C  0.38251289  0.73932537  0.00230006    -0.54600
C1148       C  0.40785413  0.71558121  0.51360751     0.09400
C1149       C  0.40612638  0.76902394  0.55290704    -0.54100
C1150       C  0.43151437  0.74547590  0.56447213     0.10000
H1151       H  0.45324701  0.78987270  0.98087784     0.14500
H1152       H  0.47068508  0.70700483  0.54247212     0.00200
H1153       H  0.35029785  0.73527634  0.99158560     0.14800
H1154       H  0.39134541  0.78502363  0.57065039     0.14600
C1155       C  0.89011749  0.98112422  0.86019615     0.86400
C1156       C  0.93178218  0.98449897  0.88139894    -0.53900
C1157       C  0.95733305  0.50757678  0.87155946     0.09300
C1158       C  0.93663326  0.52739717  0.84150236     0.20200
C1159       C  0.86790275  0.01213643  0.86421856    -0.54600
C1160       C  0.89110661  0.53646618  0.85363869     0.09400
C1161       C  0.90247784  0.98021530  0.82173263    -0.54100
C1162       C  0.92629613  0.50422758  0.81139846     0.10000
H1163       H  0.94127786  0.96870724  0.90209337     0.14500
H1164       H  0.95653804  0.54684656  0.83357113     0.00200
H1165       H  0.83564933  0.51529145  0.87287540     0.14800
H1166       H  0.89388579  0.96133085  0.80429129     0.14600
C1167       C  0.90685177  0.51615107  0.52451357     0.86400
C1168       C  0.94305192  0.51891096  0.99879137    -0.53900
C1169       C  0.97328804  0.99636800  0.00079028     0.09300
C1170       C  0.96444027  0.97234263  0.52922617     0.20200
C1171       C  0.88830375  0.48434528  0.01857720    -0.54600
C1172       C  0.91765832  0.96125852  0.52101760     0.09400
C1173       C  0.92991205  0.51355436  0.56063035    -0.54100
C1174       C  0.96094177  0.99180122  0.56311447     0.10000
H1175       H  0.94471039  0.53760877  0.98044844     0.14500
H1176       H  0.98867907  0.95383716  0.53145964     0.00200
H1177       H  0.85410268  0.98021523  0.01474937     0.14800
H1178       H  0.92195171  0.52626366  0.58385663     0.14600
O1179       O  0.11252881  0.97441910  0.95982746    -0.74600
O1180       O  0.01975152  0.98219811  0.89260259    -0.74600
O1181       O  0.10826277  0.98143473  0.89016911    -0.74600
O1182       O  0.02485361  0.97372237  0.96265665    -0.74700
O1183       O  0.02630826  0.52394641  0.97131038    -0.74600
O1184       O  0.10546502  0.53166051  0.89793644    -0.74600
O1185       O  0.01746314  0.53237284  0.90161234    -0.74600
O1186       O  0.11501858  0.52473580  0.96748804    -0.74600
Ni1187     Ni  0.06619425  0.97618378  0.92599429     1.25400
Ni1188     Ni  0.06603693  0.52996579  0.93489403     1.25400
C1189       C  0.13156004  0.99827486  0.97215101     0.87600
C1190       C  0.00130334  0.00807871  0.88786638     0.87600
C1191       C  0.12264590  0.00804381  0.88401571     0.87600
C1192       C  0.01075967  0.99771353  0.97787191     0.87800
C1193       C  0.22192404  0.54530989  0.84962672     0.86400
C1194       C  0.18413075  0.53937803  0.87183374    -0.53900
C1195       C  0.16247160  0.01312519  0.86428105     0.09300
C1196       C  0.18368120  0.99348374  0.83475039     0.20200
C1197       C  0.25105759  0.51711989  0.85384990    -0.54600
C1198       C  0.23189043  0.98982984  0.84607659     0.09400
C1199       C  0.20261567  0.54281720  0.81193615    -0.54100
C1200       C  0.18619747  0.01503901  0.80290390     0.10000
H1201       H  0.17464747  0.55561561  0.89183007     0.14500
H1202       H  0.16695544  0.97176488  0.82841214     0.00200
H1203       H  0.28440393  0.01892305  0.86259188     0.14800
H1204       H  0.20409190  0.56013797  0.79232386     0.14600
C1205       C  0.24104365  0.96349441  0.49069387     0.87000
C1206       C  0.19940141  0.97149910  0.97142814    -0.53900
C1207       C  0.17605171  0.49392261  0.98656995     0.09300
C1208       C  0.19902556  0.50847307  0.51973485     0.20200
C1209       C  0.26635055  0.99348679  0.99360262    -0.54600
C1210       C  0.24482292  0.51714782  0.50892204     0.09400
C1211       C  0.22846269  0.95787364  0.52868440    -0.54100
C1212       C  0.20801678  0.48131299  0.54461880     0.10000
H1213       H  0.18801046  0.95885457  0.94819998     0.14500
H1214       H  0.18123531  0.52759689  0.53167656     0.00200
H1215       H  0.29936901  0.49590255  0.98691379     0.14800
H1216       H  0.23474440  0.93644126  0.54171778     0.14600
C1217       C  0.19876438  0.48068572  0.58273475    -0.12100
C1218       C  0.22658475  0.96616781  0.60800781     0.03400
C1219       C  0.21639370  0.96618835  0.64327253    -0.12600
C1220       C  0.18101572  0.48234771  0.65499776     0.18200
C1221       C  0.15409888  0.49755341  0.63038929    -0.09700
C1222       C  0.16221954  0.49582010  0.59452422    -0.02600
H1223       H  0.23859657  0.95590356  0.66234197     0.04800
C1224       C  0.18048876  0.98957267  0.69289404     0.20200
H1225       H  0.14071614  0.50739425  0.57603862     0.09900
C1226       C  0.21276135  0.50871498  0.70623816    -0.16000
C1227       C  0.21672438  0.51575764  0.74176539     0.02900
C1228       C  0.18572710  0.00501265  0.76519264    -0.11300
C1229       C  0.15417681  0.98465650  0.75190240    -0.01400
C1230       C  0.15172923  0.97661098  0.71597986    -0.06500
H1231       H  0.23611889  0.51763335  0.68871755     0.05900
H1232       H  0.13104784  0.97534512  0.76927237     0.09300
Br1233     Br  0.10955071  0.52415068  0.64494296    -0.06200
Br1234     Br  0.28268764  0.95014213  0.59896070    -0.03200
Br1235     Br  0.26833842  0.53785785  0.75491151    -0.00300
Br1236     Br  0.10966340  0.94758390  0.69950970    -0.04700
C1237       C  0.94106777  0.50593109  0.77476380    -0.12100
C1238       C  0.91413616  0.49708564  0.74564295     0.03400
C1239       C  0.93118670  0.49295573  0.71271054    -0.12600
C1240       C  0.97466217  0.99807539  0.70728006     0.18200
C1241       C  0.00059655  0.01007036  0.73531200    -0.09700
C1242       C  0.98389505  0.01339514  0.76887109    -0.02600
H1243       H  0.91011311  0.48574808  0.69089451     0.04800
C1244       C  0.98969377  0.99262095  0.67117762     0.20200
H1245       H  0.00486794  0.02082130  0.79061762     0.09900
C1246       C  0.00116947  0.51758803  0.65114836    -0.16000
C1247       C  0.00047254  0.51553232  0.61448815     0.02900
C1248       C  0.98527683  0.98877754  0.59721509    -0.11300
C1249       C  0.97966723  0.96260861  0.61713360    -0.01400
C1250       C  0.98250930  0.96428742  0.65398449    -0.06500
H1251       H  0.00711498  0.53946132  0.66372697     0.05900
H1252       H  0.96850399  0.94180003  0.60436900     0.09300
Br1253     Br  0.05879175  0.02179094  0.72968633    -0.06200
Br1254     Br  0.85331781  0.49130260  0.74789012    -0.03200
Br1255     Br  0.01356268  0.55157299  0.58882703    -0.00300
Br1256     Br  0.97166150  0.92812301  0.67991308    -0.04700
C1257       C  0.38768040  0.68518823  0.51808594    -0.12100
C1258       C  0.39871798  0.65949332  0.99808102     0.03400
C1259       C  0.37438323  0.63265209  0.99977911    -0.12600
C1260       C  0.33923328  0.63083111  0.52177557     0.18200
C1261       C  0.33009173  0.65598361  0.54344601    -0.09700
C1262       C  0.35361009  0.68287930  0.54091632    -0.02600
H1263       H  0.38244119  0.61330850  0.98344831     0.04800
C1264       C  0.31274811  0.60260324  0.52176471     0.20200
H1265       H  0.34477252  0.70235898  0.55649027     0.09900
C1266       C  0.33090335  0.57573455  0.53517565    -0.16000
C1267       C  0.30823284  0.54823460  0.53343936     0.02900
C1268       C  0.26646037  0.54693952  0.51744425    -0.11300
C1269       C  0.24718633  0.57430080  0.00620514    -0.01400
C1270       C  0.27013527  0.60184274  0.00774306    -0.06500
H1271       H  0.36313762  0.57611258  0.54686887     0.05900
H1272       H  0.21523392  0.57391245  0.99397961     0.09300
Br1273     Br  0.28649682  0.65457780  0.57750969    -0.06200
Br1274     Br  0.44580718  0.66057638  0.96750290    -0.03200
Br1275     Br  0.33575454  0.51352764  0.55472572    -0.00300
Br1276     Br  0.24323344  0.63731360  0.98774292    -0.04700
C1277       C  0.26073929  0.93462843  0.47508390    -0.12100
C1278       C  0.30038225  0.93247970  0.95832179     0.03400
C1279       C  0.32105479  0.90419852  0.95652570    -0.12600
C1280       C  0.30187006  0.87780175  0.46902023     0.18200
C1281       C  0.25961183  0.87932766  0.48020613    -0.09700
C1282       C  0.23880299  0.90728035  0.48126125    -0.02600
H1283       H  0.35316306  0.90301589  0.94691434     0.04800
C1284       C  0.32859462  0.85076024  0.47651566     0.20200
H1285       H  0.20685843  0.90797573  0.49142405     0.09900
C1286       C  0.36221385  0.85379765  0.50162502    -0.16000
C1287       C  0.38566291  0.82858921  0.51323124     0.02900
C1288       C  0.37421095  0.79896114  0.50083612    -0.11300
C1289       C  0.34214595  0.79648336  0.97386439    -0.01400
C1290       C  0.31975564  0.82199804  0.96156390    -0.06500
H1291       H  0.37003687  0.87603855  0.51260708     0.05900
H1292       H  0.33502905  0.77502317  0.96098266     0.09300
Br1293     Br  0.23165547  0.84555521  0.50116539    -0.06200
Br1294     Br  0.32563177  0.96488404  0.93293822    -0.03200
Br1295     Br  0.43394425  0.83725434  0.54483082    -0.00300
Br1296     Br  0.27873648  0.81611537  0.92349147    -0.04700
C1297       C  0.25662978  0.96027745  0.84570490    -0.12100
C1298       C  0.29966492  0.95794361  0.83471841     0.03400
C1299       C  0.32185452  0.93016958  0.83684802    -0.12600
C1300       C  0.30215585  0.90370243  0.84820130     0.18200
C1301       C  0.25884865  0.90557159  0.85772651    -0.09700
C1302       C  0.23685054  0.93357028  0.85677136    -0.02600
H1303       H  0.35469601  0.92902702  0.82866243     0.04800
C1304       C  0.32785170  0.87483421  0.84975692     0.20200
H1305       H  0.20411738  0.93445697  0.86517727     0.09900
C1306       C  0.36315399  0.87244854  0.87382926    -0.16000
C1307       C  0.38761065  0.84552710  0.87658670     0.02900
C1308       C  0.37787229  0.82058552  0.85425246    -0.11300
C1309       C  0.34407698  0.82357758  0.82888623    -0.01400
C1310       C  0.31949381  0.85035269  0.82629468    -0.06500
H1311       H  0.37136025  0.89151327  0.89089619     0.05900
H1312       H  0.33616837  0.80462355  0.81142472     0.09300
Br1313     Br  0.22776314  0.87092725  0.87254553    -0.06200
Br1314     Br  0.33021976  0.99029993  0.81342085    -0.03200
Br1315     Br  0.43186437  0.84298555  0.91282875    -0.00300
Br1316     Br  0.27598304  0.85278043  0.78938079    -0.04700
C1317       C  0.36621236  0.70761573  0.88136196    -0.12100
C1318       C  0.38440546  0.67790345  0.88005755     0.03400
C1319       C  0.35844791  0.65249973  0.88282393    -0.12600
C1320       C  0.31472314  0.65580876  0.88775536     0.18200
C1321       C  0.29748124  0.68472115  0.89412390    -0.09700
C1322       C  0.32316916  0.71040917  0.89106638    -0.02600
H1323       H  0.37195362  0.63001473  0.87890136     0.04800
C1324       C  0.28726654  0.62952355  0.87992515     0.20200
H1325       H  0.30838278  0.73219856  0.89549647     0.09900
C1326       C  0.28715828  0.60523373  0.90316287    -0.16000
C1327       C  0.26589625  0.57827787  0.89384271     0.02900
C1328       C  0.24450095  0.57505730  0.86036708    -0.11300
C1329       C  0.24418610  0.60030970  0.83772938    -0.01400
C1330       C  0.26577616  0.62697070  0.84702624    -0.06500
H1331       H  0.30458286  0.60701669  0.92828236     0.05900
H1332       H  0.22776350  0.60028478  0.81253855     0.09300
Br1333     Br  0.23843071  0.69001900  0.90497807    -0.06200
Br1334     Br  0.44380118  0.66938465  0.87275320    -0.03200
Br1335     Br  0.26909661  0.54661066  0.92794309    -0.00300
Br1336     Br  0.26752749  0.65853172  0.81252398    -0.04700
C1337       C  0.43786078  0.73965088  0.60297624    -0.12100
C1338       C  0.40378869  0.74377021  0.62616144     0.03400
C1339       C  0.41235739  0.74590497  0.66226859    -0.12600
C1340       C  0.45402823  0.74263938  0.67667480     0.18200
C1341       C  0.48683742  0.73342654  0.65429767    -0.09700
C1342       C  0.47890873  0.73294074  0.61757887    -0.02600
H1343       H  0.38611257  0.75042411  0.67940651     0.04800
C1344       C  0.46082057  0.74848628  0.71511371     0.20200
H1345       H  0.50511335  0.72825589  0.60049873     0.09900
C1346       C  0.47443151  0.72487601  0.73732623    -0.16000
C1347       C  0.47264636  0.72802832  0.77381172     0.02900
C1348       C  0.45413284  0.75427965  0.78877603    -0.11300
C1349       C  0.44419359  0.77896145  0.76691796    -0.01400
C1350       C  0.44814121  0.77642897  0.73043054    -0.06500
H1351       H  0.48485987  0.70340531  0.72635298     0.05900
H1352       H  0.43088667  0.79959592  0.77792083     0.09300
Br1353     Br  0.54227765  0.72092416  0.67248970    -0.06200
Br1354     Br  0.34424280  0.74572258  0.61119086    -0.03200
Br1355     Br  0.49693046  0.69601243  0.80183799    -0.00300
Br1356     Br  0.43429391  0.81144682  0.70244245    -0.04700
C1357       C  0.90195904  0.92938813  0.52219112    -0.12100
C1358       C  0.90718922  0.90860402  0.99427959     0.03400
C1359       C  0.88272845  0.88174533  0.99230003    -0.12600
C1360       C  0.85289764  0.87535996  0.51791961     0.18200
C1361       C  0.84965697  0.89523674  0.54684891    -0.09700
C1362       C  0.87384697  0.92196395  0.54871863    -0.02600
H1363       H  0.88613731  0.86624431  0.97028594     0.04800
C1364       C  0.82593913  0.84761764  0.51502290     0.20200
H1365       H  0.86935162  0.93775762  0.57030592     0.09900
C1366       C  0.84279979  0.82033288  0.52798069    -0.16000
C1367       C  0.81755285  0.79418441  0.52902869     0.02900
C1368       C  0.77421711  0.79463365  0.51576880    -0.11300
C1369       C  0.75709441  0.82233917  0.00348802    -0.01400
C1370       C  0.78262180  0.84863349  0.00294680    -0.06500
H1371       H  0.87557590  0.81966135  0.53851965     0.05900
H1372       H  0.72411828  0.82338680  0.99352448     0.09300
Br1373     Br  0.81158890  0.88706707  0.58394053    -0.06200
Br1374     Br  0.94515154  0.91698526  0.95734184    -0.03200
Br1375     Br  0.84429631  0.75988300  0.55208883    -0.00300
Br1376     Br  0.75727039  0.88558041  0.98569983    -0.04700
C1377       C  0.75775720  0.67936842  0.51001770    -0.12100
C1378       C  0.73548456  0.65295894  0.52059006     0.03400
C1379       C  0.75452611  0.62431546  0.51781305    -0.12600
C1380       C  0.79538836  0.62117274  0.50467174     0.18200
C1381       C  0.81658176  0.64664703  0.99218364    -0.09700
C1382       C  0.79765524  0.67527283  0.99438209    -0.02600
H1383       H  0.73845535  0.60459115  0.52784915     0.04800
C1384       C  0.81917965  0.59286945  0.51082840     0.20200
H1385       H  0.81575798  0.69390962  0.98465137     0.09900
C1386       C  0.82166294  0.57081566  0.98435747    -0.16000
C1387       C  0.84863295  0.54551126  0.98886935     0.02900
C1388       C  0.87398998  0.54204860  0.52037731    -0.11300
C1389       C  0.87037901  0.56469300  0.54677216    -0.01400
C1390       C  0.84314121  0.58947431  0.54233792    -0.06500
H1391       H  0.80352869  0.57376246  0.95976660     0.05900
H1392       H  0.88969160  0.56495830  0.57065515     0.09300
Br1393     Br  0.87359928  0.64372989  0.97536539    -0.06200
Br1394     Br  0.67996878  0.65386526  0.54097164    -0.03200
Br1395     Br  0.85048523  0.51750141  0.95011120    -0.00300
Br1396     Br  0.84199120  0.61944637  0.57946425    -0.04700
C1397       C  0.86989368  0.56699216  0.84938025    -0.12100
C1398       C  0.82799749  0.56974758  0.83362859     0.03400
C1399       C  0.80619252  0.59754490  0.83419889    -0.12600
C1400       C  0.82507818  0.62352260  0.84937380     0.18200
C1401       C  0.86755882  0.62147576  0.86359414    -0.09700
C1402       C  0.88954911  0.59335078  0.86358904    -0.02600
H1403       H  0.77403148  0.59896148  0.82245088     0.04800
C1404       C  0.79908901  0.65208720  0.84970357     0.20200
H1405       H  0.92149038  0.59188992  0.87570054     0.09900
C1406       C  0.76286113  0.65387866  0.87054131    -0.16000
C1407       C  0.73585392  0.67961721  0.86982168     0.02900
C1408       C  0.74446080  0.70410686  0.84759574    -0.11300
C1409       C  0.78013552  0.70179120  0.82611069    -0.01400
C1410       C  0.80719066  0.67626536  0.82699564    -0.06500
H1411       H  0.75580120  0.63522469  0.88773609     0.05900
H1412       H  0.78737823  0.72026686  0.80871833     0.09300
Br1413     Br  0.89620661  0.65619910  0.88417460    -0.06200
Br1414     Br  0.79821838  0.53700860  0.80952946    -0.03200
Br1415     Br  0.68956628  0.68091542  0.90129977    -0.00300
Br1416     Br  0.85414569  0.67521603  0.79596258    -0.04700
C1417       C  0.74487195  0.81822783  0.85766632    -0.12100
C1418       C  0.77110390  0.82148828  0.88888402     0.03400
C1419       C  0.79423888  0.84822334  0.89536058    -0.12600
C1420       C  0.79132867  0.87217121  0.87163877     0.18200
C1421       C  0.76488026  0.86961146  0.84116050    -0.09700
C1422       C  0.74148106  0.84319307  0.83469509    -0.02600
H1423       H  0.81477827  0.85031051  0.91888612     0.04800
C1424       C  0.81842525  0.89896029  0.87716194     0.20200
H1425       H  0.72025271  0.84323429  0.81178515     0.09900
C1426       C  0.86094908  0.89704501  0.86750976    -0.16000
C1427       C  0.88523070  0.92323889  0.86406706     0.02900
C1428       C  0.86641580  0.95233826  0.86988642    -0.11300
C1429       C  0.82491331  0.95349447  0.88324801    -0.01400
C1430       C  0.80096890  0.92709900  0.88673752    -0.06500
H1431       H  0.87452832  0.87514739  0.86063580     0.05900
H1432       H  0.80970110  0.97457758  0.89018499     0.09300
Br1433     Br  0.76063524  0.90133726  0.80678776    -0.06200
Br1434     Br  0.77699915  0.79068838  0.92419159    -0.03200
Br1435     Br  0.94288885  0.91696355  0.84901954    -0.00300
Br1436     Br  0.74349930  0.93065033  0.90243837    -0.04700
C1437       C  0.69721602  0.75265100  0.59770894    -0.12100
C1438       C  0.72383196  0.74701367  0.62774861     0.03400
C1439       C  0.70699258  0.74886242  0.66096329    -0.12600
C1440       C  0.66385534  0.75653167  0.66547314     0.18200
C1441       C  0.63920694  0.76694864  0.63592567    -0.09700
C1442       C  0.65572497  0.76415553  0.60227251    -0.02600
H1443       H  0.72767830  0.74351783  0.68362263     0.04800
C1444       C  0.64764501  0.75344928  0.70156295     0.20200
H1445       H  0.63546362  0.76997297  0.57955336     0.09900
C1446       C  0.63156792  0.77887297  0.71929021    -0.16000
C1447       C  0.62999256  0.77907297  0.75593621     0.02900
C1448       C  0.64857559  0.75485973  0.77547726    -0.11300
C1449       C  0.65817743  0.72778077  0.75784441    -0.01400
C1450       C  0.65652369  0.72666664  0.72104035    -0.06500
H1451       H  0.62355537  0.79950829  0.70524532     0.05900
H1452       H  0.67093159  0.70849234  0.77238714     0.09300
Br1453     Br  0.58370609  0.78544581  0.63897374    -0.06200
Br1454     Br  0.78372022  0.73737028  0.62579781    -0.03200
Br1455     Br  0.60652926  0.81429274  0.77855414    -0.00300
Br1456     Br  0.67063693  0.68880530  0.69858219    -0.04700
loop_ 
_geom_bond_atom_site_label_1 
_geom_bond_atom_site_label_2 
_geom_bond_distance 
_geom_bond_site_symmetry_2 
_ccdc_geom_bond_type 
C1            C2   1.520       .  S
C1            C7   1.534       .  S
C1            C5   1.526       .  S
C1          C325   1.526       .  S
C2            H9   1.087       .  S
C2            C3   1.362       .  D
C3            C4   1.556       .  S
C3           C35   1.485       .  S
C4            C8   1.550       .  S
C4            C6   1.564       .  S
C4           H10   1.110       .  S
C5           H11   1.087       .  S
C5            C6   1.364       .  D
C6          C316   1.498       .  S
C7           H12   1.081       .  S
C7            C8   1.365       .  D
C8          C356   1.486       .  S
C13          C19   1.536       .  S
C13         C378   1.510   1_554  S
C13         C381   1.541       .  S
C13         C285   1.528       .  S
C14         C377   1.510       .  S
C14          H21   1.086       .  S
C14          C15   1.359       .  D
C15         C380   1.559       .  S
C15          C37   1.480       .  S
C16          C20   1.541       .  S
C16          C18   1.553       .  S
C16         C379   1.559       .  S
C16          H22   1.110       .  S
C17         C377   1.541       .  S
C17          H23   1.079       .  S
C17         C382   1.365       .  D
C18         C381   1.365       .  D
C18         C276   1.500       .  S
C19          H24   1.086       .  S
C19          C20   1.367       .  D
C20         C345   1.485       .  S
O25         Ni33   1.909       .  S
O25          C35   1.284       .  A
O26         Ni33   1.914       .  S
O26          C36   1.285       .  A
O27         Ni33   1.930       .  S
O27          C37   1.279       .  A
O28         Ni33   1.938       .  S
O28          C38   1.281       .  A
O29         Ni34   1.905       .  S
O29          C38   1.283       .  A
O30         Ni34   1.902       .  S
O30          C37   1.283       .  A
O31         Ni34   1.940       .  S
O31          C36   1.281       .  A
O32         Ni34   1.935       .  S
O32          C35   1.280       .  A
Ni33        Ni34   2.387       .  S
C36          C53   1.487       .  S
C38          C41   1.478       .  S
C39          C40   1.516       .  S
C39          C45   1.537       .  S
C39          C43   1.537       .  S
C39         C225   1.526       .  S
C40          H47   1.088       .  S
C40          C41   1.359       .  D
C41          C42   1.555       .  S
C42          C46   1.548       .  S
C42          C44   1.561       .  S
C42          H48   1.110       .  S
C43          H49   1.082       .  S
C43          C44   1.365       .  D
C44         C216   1.494       .  S
C45          H50   1.087       .  S
C45          C46   1.365       .  D
C46         C256   1.490       .  S
C51          C57   1.528       .  S
C51         C416   1.506   1_554  S
C51         C419   1.544       .  S
C51         C196   1.524       .  S
C52         C415   1.506       .  S
C52          H59   1.089       .  S
C52          C53   1.355       .  D
C53         C418   1.567       .  S
C54          C58   1.558       .  S
C54          C56   1.553       .  S
C54         C417   1.567       .  S
C54          H60   1.110       .  S
C55         C415   1.544       .  S
C55          H61   1.084       .  S
C55         C420   1.370       .  D
C56         C419   1.370       .  D
C56         C165   1.493       .  S
C57          H62   1.085       .  S
C57          C58   1.367       .  D
C58         C245   1.497       .  S
C63          C64   1.510       .  S
C63          C69   1.530       .  S
C63          C67   1.536       .  S
C63         C336   1.524       .  S
C64          H71   1.087       .  S
C64         C793   1.358       .  D
C65          C66   1.563       .  S
C65         C792   1.358   1_545  D
C65         C826   1.483   1_655  S
C66          C70   1.551       .  S
C66          C68   1.560       .  S
C66          H72   1.110       .  S
C67         H801   1.079       .  S
C67         C796   1.367       .  D
C68         C795   1.367       .  D
C68         C305   1.501       .  S
C69          H74   1.085       .  S
C69         C798   1.364       .  D
C70         C797   1.364   1_545  D
C70         C145   1.490       .  S
H73         C795   1.079       .  S
C75          C81   1.532       .  S
C75         C440   1.531   1_554  S
C75         C443   1.526   1_545  S
C75         C296   1.534       .  S
C76         C439   1.531       .  S
C76          H83   1.087       .  S
C76         C805   1.366   1_545  D
C77         C442   1.554       .  S
C77         C804   1.366       .  D
C77         C100   1.489   1_655  S
C78          C82   1.548       .  S
C78          C80   1.559       .  S
C78         C441   1.554       .  S
C78          H84   1.110       .  S
C79         C439   1.526   1_565  S
C79         H813   1.087       .  S
C79        C1172   1.366       .  D
C80        C1171   1.366       .  D
C80         C265   1.487       .  S
C81          H86   1.078       .  S
C81         C810   1.360   1_545  D
C82         C809   1.360       .  D
C82         C156   1.485       .  S
H85         C807   1.087       .  S
O87         Ni95   1.900       .  S
O87          C97   1.282       .  A
O88         Ni95   1.909       .  S
O88          C98   1.284       .  A
O89         Ni95   1.947       .  S
O89          C99   1.281       .  A
O90         Ni95   1.943       .  S
O90         C100   1.283       .  A
O91         Ni96   1.918       .  S
O91         C828   1.284   1_545  A
O92         Ni96   1.909       .  S
O92         C827   1.286       .  A
O93         Ni96   1.940       .  S
O93         C826   1.280       .  A
O94         Ni96   1.944       .  S
O94         C825   1.282   1_545  A
Ni95       Ni824   2.385       .  S
Ni96       Ni823   2.385   1_545  S
C97         C843   1.485       .  S
C97         O822   1.282       .  A
C98         C793   1.483   1_455  S
C98         O821   1.280       .  A
C99         C103   1.496       .  S
C99         O820   1.286       .  A
C100        O819   1.284       .  A
C101        C102   1.504       .  S
C101        C107   1.538       .  S
C101        C105   1.540       .  S
C101        C236   1.532       .  S
C102        H109   1.087       .  S
C102        C831   1.362       .  D
C103        C104   1.576       .  S
C103        C830   1.362       .  D
C104        C108   1.552       .  S
C104        C106   1.556       .  S
C104        H110   1.109       .  S
C105        H839   1.082       .  S
C105        C834   1.367   1_545  D
C106        C833   1.367       .  D
C106        C205   1.509       .  S
C107        H112   1.075       .  S
C107        C836   1.361       .  D
C108        C835   1.361       .  D
C108        C136   1.498       .  S
H111        C833   1.082       .  S
C113        C119   1.537   1_556  S
C113        C478   1.509       .  S
C113        C481   1.540       .  S
C113        C185   1.533       .  S
C114        C477   1.509       .  S
C114        H121   1.088       .  S
C114        C843   1.361       .  D
C115        C480   1.560   1_565  S
C115        C842   1.361       .  D
C115        C825   1.485       .  S
C116        C120   1.550   1_545  S
C116        C118   1.553       .  S
C116        C479   1.560   1_544  S
C116        H122   1.109       .  S
C117        C477   1.540       .  S
C117        H851   1.077       .  S
C117       C1210   1.373       .  D
C118       C1209   1.373   1_544  D
C118        C176   1.502       .  S
C119        H124   1.083       .  S
C119        C848   1.360       .  D
C120        C847   1.360       .  D
C120        C125   1.492       .  S
H123        C845   1.077       .  S
C125        C130   1.405       .  A
C125        C854   1.424       .  A
C126        C127   1.393       .  A
C126        C853   1.424       .  A
C126       Br142   1.927       .  S
C127        C856   1.396       .  A
C127        H131   1.084       .  S
C128        C129   1.406       .  A
C128        C855   1.396       .  A
C128        C860   1.476       .  S
C129        C130   1.401       .  A
C129       Br141   1.909   1_565  S
C130        H133   1.082   1_565  S
C132        C138   1.407       .  A
C132        C862   1.392       .  A
C132        C856   1.476       .  S
C134        C135   1.386       .  A
C134        C860   1.392   1_545  A
C134        H139   1.085       .  S
C135        C864   1.427       .  A
C135       Br143   1.930       .  S
C136        C137   1.408       .  A
C136        C863   1.427       .  A
C137        C138   1.409       .  A
C137        H140   1.083       .  S
C138       Br144   1.917       .  S
C145        C146   1.416   1_545  A
C145        C878   1.404       .  A
C146        C147   1.392       .  A
C146       Br162   1.921       .  S
C147        C876   1.400       .  A
C147        H151   1.084       .  S
C148        C149   1.412   1_655  A
C148        C875   1.400       .  A
C148        C152   1.488       .  S
C149        C150   1.406   1_455  A
C149       Br161   1.910       .  S
C150        C873   1.404       .  A
C150        H153   1.083   1_655  S
C152        C158   1.415       .  A
C152        C882   1.399   1_655  A
C154        C155   1.398       .  A
C154        C880   1.399   1_445  A
C154        H159   1.083       .  S
C155        C884   1.415   1_445  A
C155       Br163   1.924       .  S
C156        C157   1.400       .  A
C156        C883   1.415   1_655  A
C157        C158   1.404       .  A
C157        H160   1.083       .  S
C158       Br164   1.918       .  S
C165        C170   1.405       .  A
C165        C530   1.406   1_554  A
C166        C167   1.409       .  A
C166        C529   1.406       .  A
C166       Br182   1.912       .  S
C167        C532   1.409       .  A
C167        H171   1.083       .  S
C168        C169   1.408       .  A
C168        C531   1.409   1_554  A
C168        C172   1.493       .  S
C169        C170   1.400       .  A
C169       Br181   1.919       .  S
C170        H173   1.078       .  S
C172        C174   1.400       .  A
C172        C542   1.413       .  A
C174        C175   1.402       .  A
C174        H179   1.084       .  S
C175        C176   1.417       .  A
C175       Br183   1.919       .  S
C176        C541   1.406       .  A
C177        C178   1.408       .  A
C177        C540   1.406       .  A
C177        H180   1.083       .  S
C178        C536   1.413       .  A
C178       Br184   1.918       .  S
C185        C190   1.412       .  A
C185        C550   1.417       .  A
C186        C187   1.401       .  A
C186        C549   1.417       .  A
C186       Br202   1.919       .  S
C187        C552   1.404       .  A
C187        H191   1.081       .  S
C188        C189   1.403       .  A
C188        C551   1.404       .  A
C188        C192   1.473       .  S
C189        C190   1.389       .  A
C189       Br201   1.921   1_556  S
C190        H193   1.084       .  S
C192        C194   1.397   1_556  A
C192        C562   1.405       .  A
C194        C195   1.392       .  A
C194        H199   1.084       .  S
C195        C196   1.423       .  A
C195       Br203   1.927       .  S
C196        C561   1.409   1_554  A
C197        C198   1.394       .  A
C197        C560   1.409       .  A
C197        H200   1.078       .  S
C198        C556   1.405       .  A
C198       Br204   1.911       .  S
C205        C206   1.425       .  A
C205        C210   1.405       .  A
C206        C207   1.403       .  A
C206       Br222   1.920       .  S
C207        C208   1.398       .  A
C207        H211   1.084       .  S
C208        C209   1.415       .  A
C208        C212   1.499       .  S
C209        C210   1.407       .  A
C209       Br221   1.911       .  S
C210        H213   1.083       .  S
C212        C214   1.409       .  A
C212        C218   1.410       .  A
C214        C215   1.408       .  A
C214        H219   1.080       .  S
C215        C216   1.407       .  A
C215       Br223   1.917       .  S
C216        C217   1.408       .  A
C217        C218   1.405       .  A
C217        H220   1.084       .  S
C218       Br224   1.918       .  S
C225        C226   1.423       .  A
C225        C230   1.412       .  A
C226        C227   1.389       .  A
C226       Br242   1.920       .  S
C227        C228   1.391       .  A
C227        H231   1.084       .  S
C228        C229   1.401       .  A
C228        C232   1.462       .  S
C229        C230   1.396       .  A
C229       Br241   1.917       .  S
C230        H233   1.076       .  S
C232        C234   1.394       .  A
C232        C238   1.401       .  A
C234        C235   1.396       .  A
C234        H239   1.084       .  S
C235        C236   1.421       .  A
C235       Br243   1.913       .  S
C236        C237   1.412       .  A
C237        C238   1.389       .  A
C237        H240   1.070       .  S
C238       Br244   1.923       .  S
C245        C246   1.419       .  A
C245        C250   1.407       .  A
C246        C247   1.393       .  A
C246       Br262   1.923       .  S
C247        C248   1.398       .  A
C247        H251   1.084       .  S
C248        C249   1.414       .  A
C248        C252   1.491       .  S
C249        C250   1.411       .  A
C249       Br261   1.918       .  S
C250        H253   1.083       .  S
C252        C254   1.400       .  A
C252        C258   1.416       .  A
C254        C255   1.399       .  A
C254        H259   1.082       .  S
C255        C256   1.413       .  A
C255       Br263   1.911       .  S
C256        C257   1.401       .  A
C257        C258   1.404       .  A
C257        H260   1.084       .  S
C258       Br264   1.920       .  S
C265        C270   1.406       .  A
C265        C630   1.409   1_554  A
C266        C267   1.408       .  A
C266        C629   1.409       .  A
C266       Br282   1.915       .  S
C267        C632   1.407       .  A
C267        H271   1.083       .  S
C268        C269   1.406       .  A
C268        C631   1.407   1_554  A
C268        C272   1.485       .  S
C269        C270   1.398       .  A
C269       Br281   1.919       .  S
C270        H273   1.084       .  S
C272        C274   1.395       .  A
C272        C642   1.410       .  A
C274        C275   1.398       .  A
C274        H279   1.084       .  S
C275        C276   1.424       .  A
C275       Br283   1.924       .  S
C276        C641   1.405       .  A
C277        C278   1.407       .  A
C277        C640   1.405       .  A
C277        H280   1.083       .  S
C278        C636   1.410       .  A
C278       Br284   1.915       .  S
C285        C286   1.425       .  A
C285        C654   1.411   1_554  A
C286        C287   1.395       .  A
C286       Br302   1.926       .  S
C287        C288   1.394       .  A
C287        H291   1.084       .  S
C288        C653   1.400   1_554  A
C288        C292   1.463       .  S
C289        C290   1.391       .  A
C289        C652   1.400       .  A
C289       Br301   1.918       .  S
C290        C649   1.411       .  A
C290        H293   1.074       .  S
C292        C298   1.397       .  A
C292        C658   1.396   1_554  A
C294        C295   1.400       .  A
C294        C656   1.396       .  A
C294        H299   1.084       .  S
C295        C660   1.421       .  A
C295       Br303   1.915       .  S
C296        C297   1.415       .  A
C296        C659   1.421   1_554  A
C297        C298   1.387       .  A
C297        H300   1.070       .  S
C298       Br304   1.924       .  S
C305        C306   1.422       .  A
C305        C310   1.406       .  A
C306        C307   1.397       .  A
C306       Br322   1.921       .  S
C307        C308   1.396       .  A
C307        H311   1.084       .  S
C308        C309   1.414       .  A
C308        C312   1.492       .  S
C309        C310   1.412       .  A
C309       Br321   1.916       .  S
C310        H313   1.083       .  S
C312        C314   1.409       .  A
C312        C318   1.407       .  A
C314        C315   1.408       .  A
C314        H319   1.083       .  S
C315        C316   1.410       .  A
C315       Br323   1.914       .  S
C316        C317   1.411       .  A
C317        C318   1.401       .  A
C317        H320   1.084       .  S
C318       Br324   1.919       .  S
C325        C326   1.423       .  A
C325        C330   1.412       .  A
C326        C327   1.396       .  A
C326       Br342   1.921       .  S
C327        C328   1.395       .  A
C327        H331   1.084       .  S
C328        C329   1.401       .  A
C328        C332   1.461       .  S
C329        C330   1.388       .  A
C329       Br341   1.923       .  S
C330        H333   1.074       .  S
C332        C334   1.393       .  A
C332        C338   1.400       .  A
C334        C335   1.391       .  A
C334        H339   1.084       .  S
C335        C336   1.424       .  A
C335       Br343   1.928       .  S
C336        C337   1.411       .  A
C337        C338   1.393       .  A
C337        H340   1.075       .  S
C338       Br344   1.918       .  S
C345        C346   1.410       .  A
C345        C350   1.405       .  A
C346        C347   1.391       .  A
C346       Br362   1.919       .  S
C347        C348   1.403       .  A
C347        H351   1.084       .  S
C348        C349   1.416       .  A
C348        C352   1.491       .  S
C349        C350   1.405       .  A
C349       Br361   1.918       .  S
C350        H353   1.083       .  S
C352        C354   1.401       .  A
C352        C358   1.419       .  A
C354        C355   1.399       .  A
C354        H359   1.081       .  S
C355        C356   1.414       .  A
C355       Br363   1.921       .  S
C356        C357   1.398       .  A
C357        C358   1.401       .  A
C357        H360   1.083       .  S
C358       Br364   1.921       .  S
C365        C366   1.520       .  S
C365        C371   1.534       .  S
C365        C369   1.526       .  S
C365        C689   1.526       .  S
C366        H373   1.087       .  S
C366        C367   1.362       .  D
C367        C368   1.556       .  S
C367        C399   1.485       .  S
C368        C372   1.550       .  S
C368        C370   1.564       .  S
C368        H374   1.110       .  S
C369        H375   1.087       .  S
C369        C370   1.364       .  D
C370        C680   1.498       .  S
C371        H376   1.081       .  S
C371        C372   1.365       .  D
C372        C720   1.486       .  S
C377        C383   1.536       .  S
C377        C649   1.528       .  S
C378        H385   1.086       .  S
C378        C379   1.359   1_556  D
C379        C401   1.480   1_554  S
C380        C384   1.541       .  S
C380        C382   1.553       .  S
C380        H386   1.110       .  S
C381        H387   1.079   1_554  S
C382        C640   1.500       .  S
C383        H388   1.086       .  S
C383        C384   1.367       .  D
C384        C709   1.485       .  S
O389       Ni397   1.909       .  S
O389        C399   1.284       .  A
O390       Ni397   1.914       .  S
O390        C400   1.285       .  A
O391       Ni397   1.930       .  S
O391        C401   1.279       .  A
O392       Ni397   1.938       .  S
O392        C402   1.281       .  A
O393       Ni398   1.905       .  S
O393        C402   1.283       .  A
O394       Ni398   1.902       .  S
O394        C401   1.283       .  A
O395       Ni398   1.940       .  S
O395        C400   1.281       .  A
O396       Ni398   1.935       .  S
O396        C399   1.280       .  A
Ni397      Ni398   2.387       .  S
C400        C417   1.487   1_556  S
C402        C405   1.478       .  S
C403        C404   1.516       .  S
C403        C409   1.537       .  S
C403        C407   1.537       .  S
C403        C589   1.526       .  S
C404        H411   1.088       .  S
C404        C405   1.359       .  D
C405        C406   1.555       .  S
C406        C410   1.548       .  S
C406        C408   1.561       .  S
C406        H412   1.110       .  S
C407        H413   1.082       .  S
C407        C408   1.365       .  D
C408        C580   1.494       .  S
C409        H414   1.087       .  S
C409        C410   1.365       .  D
C410        C620   1.490       .  S
C415        C421   1.528       .  S
C415        C560   1.524       .  S
C416        H423   1.089       .  S
C416        C417   1.355   1_556  D
C418        C422   1.558       .  S
C418        C420   1.553       .  S
C418        H424   1.110       .  S
C419        H425   1.084   1_554  S
C420        C529   1.493       .  S
C421        H426   1.085       .  S
C421        C422   1.367       .  D
C422        C609   1.497       .  S
C427        C428   1.510       .  S
C427        C433   1.530       .  S
C427        C431   1.536       .  S
C427        C700   1.524       .  S
C428        H435   1.087       .  S
C428       C1157   1.358       .  D
C429        C430   1.563       .  S
C429       C1156   1.358   1_545  D
C429       C1190   1.483   1_655  S
C430        C434   1.551       .  S
C430        C432   1.560       .  S
C430        H436   1.110       .  S
C431       H1165   1.079       .  S
C431       C1160   1.367       .  D
C432       C1159   1.367       .  D
C432        C669   1.501       .  S
C433        H438   1.085       .  S
C433       C1162   1.364       .  D
C434       C1161   1.364   1_545  D
C434        C509   1.490       .  S
H437       C1159   1.079       .  S
C439        C445   1.532       .  S
C439        C660   1.534       .  S
C440        H447   1.087       .  S
C440       C1169   1.366   1_546  D
C441       C1168   1.366   1_554  D
C441        C464   1.489   1_654  S
C442        C446   1.548       .  S
C442        C444   1.559       .  S
C442        H448   1.110       .  S
C443       H1177   1.087       .  S
C443        C808   1.366       .  D
C444        C807   1.366       .  D
C444        C629   1.487       .  S
C445        H450   1.079       .  S
C445       C1174   1.359   1_545  D
C446       C1173   1.359       .  D
C446        C520   1.485       .  S
H449       C1171   1.087       .  S
O451       Ni459   1.900       .  S
O451        C461   1.282       .  A
O452       Ni459   1.909       .  S
O452        C462   1.284       .  A
O453       Ni459   1.947       .  S
O453        C463   1.281       .  A
O454       Ni459   1.943       .  S
O454        C464   1.283       .  A
O455       Ni460   1.918       .  S
O455       C1192   1.284   1_545  A
O456       Ni460   1.909       .  S
O456       C1191   1.286       .  A
O457       Ni460   1.940       .  S
O457       C1190   1.280       .  A
O458       Ni460   1.944       .  S
O458       C1189   1.282   1_545  A
Ni459     Ni1188   2.385       .  S
Ni460     Ni1187   2.385   1_545  S
C461       C1207   1.485       .  S
C461       O1186   1.282       .  A
C462       C1157   1.483   1_455  S
C462       O1185   1.280       .  A
C463        C467   1.496       .  S
C463       O1184   1.286       .  A
C464       O1183   1.284       .  A
C465        C466   1.504       .  S
C465        C471   1.538       .  S
C465        C469   1.540       .  S
C465        C600   1.532       .  S
C466        H473   1.087       .  S
C466       C1195   1.362       .  D
C467        C468   1.576       .  S
C467       C1194   1.362       .  D
C468        C472   1.552       .  S
C468        C470   1.556       .  S
C468        H474   1.109       .  S
C469       H1203   1.082       .  S
C469       C1198   1.367   1_545  D
C470       C1197   1.367       .  D
C470        C569   1.509       .  S
C471        H476   1.075       .  S
C471       C1200   1.361       .  D
C472       C1199   1.361       .  D
C472        C500   1.498       .  S
H475       C1197   1.082       .  S
C477        C483   1.537       .  S
C477        C549   1.533       .  S
C478        H485   1.088       .  S
C478       C1207   1.361       .  D
C479       C1206   1.361       .  D
C479       C1189   1.485       .  S
C480        C484   1.550   1_545  S
C480        C482   1.553       .  S
C480        H486   1.109       .  S
C481       H1215   1.077       .  S
C481        C846   1.373   1_556  D
C482        C845   1.373   1_545  D
C482        C540   1.502       .  S
C483        H488   1.083       .  S
C483       C1212   1.360       .  D
C484       C1211   1.360       .  D
C484        C489   1.492       .  S
H487       C1209   1.077       .  S
C489       C1218   1.424       .  A
C489        C494   1.405       .  A
C490       C1217   1.424       .  A
C490        C491   1.393       .  A
C490       Br506   1.927       .  S
C491       C1220   1.396       .  A
C491        H495   1.084       .  S
C492       C1219   1.396       .  A
C492        C493   1.406       .  A
C492       C1224   1.476       .  S
C493        C494   1.401       .  A
C493       Br505   1.909   1_565  S
C494        H497   1.082   1_565  S
C496       C1226   1.392       .  A
C496        C502   1.407       .  A
C496       C1220   1.476       .  S
C498       C1224   1.392   1_545  A
C498        C499   1.386       .  A
C498        H503   1.085       .  S
C499       C1228   1.427       .  A
C499       Br507   1.930       .  S
C500       C1227   1.427       .  A
C500        C501   1.408       .  A
C501        C502   1.409       .  A
C501        H504   1.083       .  S
C502       Br508   1.917       .  S
C509        C510   1.416   1_545  A
C509       C1242   1.404       .  A
C510        C511   1.392       .  A
C510       Br526   1.921       .  S
C511       C1240   1.400       .  A
C511        H515   1.084       .  S
C512       C1239   1.400       .  A
C512        C513   1.412   1_655  A
C512        C516   1.488       .  S
C513        C514   1.406   1_455  A
C513       Br525   1.910       .  S
C514       C1237   1.404       .  A
C514        H517   1.083   1_655  S
C516       C1246   1.399   1_655  A
C516        C522   1.415       .  A
C518       C1244   1.399   1_445  A
C518        C519   1.398       .  A
C518        H523   1.083       .  S
C519       C1248   1.415   1_445  A
C519       Br527   1.924       .  S
C520       C1247   1.415   1_655  A
C520        C521   1.400       .  A
C521        C522   1.404       .  A
C521        H524   1.083       .  S
C522       Br528   1.918       .  S
C529        C534   1.405       .  A
C530        C531   1.409       .  A
C530       Br546   1.912       .  S
C531        H535   1.083       .  S
C532        C533   1.408       .  A
C532        C536   1.493       .  S
C533        C534   1.400       .  A
C533       Br545   1.919       .  S
C534        H537   1.078       .  S
C536        C538   1.400       .  A
C538        C539   1.402       .  A
C538        H543   1.084       .  S
C539        C540   1.417       .  A
C539       Br547   1.919       .  S
C541        C542   1.408       .  A
C541        H544   1.083   1_554  S
C542       Br548   1.918   1_554  S
C549        C554   1.412       .  A
C550        C551   1.401       .  A
C550       Br566   1.919       .  S
C551        H555   1.081       .  S
C552        C553   1.403       .  A
C552        C556   1.473       .  S
C553        C554   1.389       .  A
C553       Br565   1.921       .  S
C554        H557   1.084       .  S
C556        C558   1.397       .  A
C558        C559   1.392       .  A
C558        H563   1.084       .  S
C559        C560   1.423       .  A
C559       Br567   1.927       .  S
C561        C562   1.394       .  A
C561        H564   1.078       .  S
C562       Br568   1.911       .  S
C569        C570   1.425       .  A
C569        C574   1.405       .  A
C570        C571   1.403       .  A
C570       Br586   1.920       .  S
C571        C572   1.398       .  A
C571        H575   1.084       .  S
C572        C573   1.415       .  A
C572        C576   1.499       .  S
C573        C574   1.407       .  A
C573       Br585   1.911       .  S
C574        H577   1.083       .  S
C576        C578   1.409       .  A
C576        C582   1.410       .  A
C578        C579   1.408       .  A
C578        H583   1.080       .  S
C579        C580   1.407       .  A
C579       Br587   1.917       .  S
C580        C581   1.408       .  A
C581        C582   1.405       .  A
C581        H584   1.084       .  S
C582       Br588   1.918       .  S
C589        C590   1.423       .  A
C589        C594   1.412       .  A
C590        C591   1.389       .  A
C590       Br606   1.920       .  S
C591        C592   1.391       .  A
C591        H595   1.084       .  S
C592        C593   1.401       .  A
C592        C596   1.462       .  S
C593        C594   1.396       .  A
C593       Br605   1.917       .  S
C594        H597   1.076       .  S
C596        C598   1.394       .  A
C596        C602   1.401       .  A
C598        C599   1.396       .  A
C598        H603   1.084       .  S
C599        C600   1.421       .  A
C599       Br607   1.913       .  S
C600        C601   1.412       .  A
C601        C602   1.389       .  A
C601        H604   1.069       .  S
C602       Br608   1.923       .  S
C609        C610   1.419       .  A
C609        C614   1.407       .  A
C610        C611   1.393       .  A
C610       Br626   1.923       .  S
C611        C612   1.398       .  A
C611        H615   1.084       .  S
C612        C613   1.414       .  A
C612        C616   1.491       .  S
C613        C614   1.411       .  A
C613       Br625   1.918       .  S
C614        H617   1.083       .  S
C616        C618   1.400       .  A
C616        C622   1.416       .  A
C618        C619   1.399       .  A
C618        H623   1.082       .  S
C619        C620   1.413       .  A
C619       Br627   1.911       .  S
C620        C621   1.401       .  A
C621        C622   1.404       .  A
C621        H624   1.084       .  S
C622       Br628   1.920       .  S
C629        C634   1.406       .  A
C630        C631   1.408       .  A
C630       Br646   1.915       .  S
C631        H635   1.083       .  S
C632        C633   1.406       .  A
C632        C636   1.485       .  S
C633        C634   1.398       .  A
C633       Br645   1.919       .  S
C634        H637   1.084       .  S
C636        C638   1.395       .  A
C638        C639   1.398       .  A
C638        H643   1.084       .  S
C639        C640   1.424       .  A
C639       Br647   1.924       .  S
C641        C642   1.407       .  A
C641        H644   1.083   1_554  S
C642       Br648   1.915   1_554  S
C649        C650   1.425       .  A
C650        C651   1.395       .  A
C650       Br666   1.926       .  S
C651        C652   1.394       .  A
C651        H655   1.084       .  S
C652        C656   1.463       .  S
C653        C654   1.391       .  A
C653       Br665   1.918       .  S
C654        H657   1.074       .  S
C656        C662   1.397       .  A
C658        C659   1.400       .  A
C658        H663   1.083       .  S
C659       Br667   1.915       .  S
C660        C661   1.415       .  A
C661        C662   1.387       .  A
C661        H664   1.071       .  S
C662       Br668   1.924       .  S
C669        C670   1.422       .  A
C669        C674   1.406       .  A
C670        C671   1.397       .  A
C670       Br686   1.921       .  S
C671        C672   1.396       .  A
C671        H675   1.084       .  S
C672        C673   1.414       .  A
C672        C676   1.492       .  S
C673        C674   1.412       .  A
C673       Br685   1.916       .  S
C674        H677   1.083       .  S
C676        C678   1.409       .  A
C676        C682   1.407       .  A
C678        C679   1.408       .  A
C678        H683   1.083       .  S
C679        C680   1.410       .  A
C679       Br687   1.914       .  S
C680        C681   1.411       .  A
C681        C682   1.401       .  A
C681        H684   1.084       .  S
C682       Br688   1.919       .  S
C689        C690   1.423       .  A
C689        C694   1.412       .  A
C690        C691   1.396       .  A
C690       Br706   1.921       .  S
C691        C692   1.395       .  A
C691        H695   1.084       .  S
C692        C693   1.401       .  A
C692        C696   1.461       .  S
C693        C694   1.388       .  A
C693       Br705   1.923       .  S
C694        H697   1.074       .  S
C696        C698   1.393       .  A
C696        C702   1.400       .  A
C698        C699   1.391       .  A
C698        H703   1.084       .  S
C699        C700   1.424       .  A
C699       Br707   1.928       .  S
C700        C701   1.411       .  A
C701        C702   1.393       .  A
C701        H704   1.075       .  S
C702       Br708   1.918       .  S
C709        C710   1.410       .  A
C709        C714   1.405       .  A
C710        C711   1.391       .  A
C710       Br726   1.919       .  S
C711        C712   1.403       .  A
C711        H715   1.084       .  S
C712        C713   1.416       .  A
C712        C716   1.491       .  S
C713        C714   1.405       .  A
C713       Br725   1.918       .  S
C714        H717   1.083       .  S
C716        C718   1.401       .  A
C716        C722   1.419       .  A
C718        C719   1.399       .  A
C718        H723   1.081       .  S
C719        C720   1.414       .  A
C719       Br727   1.921       .  S
C720        C721   1.398       .  A
C721        C722   1.401       .  A
C721        H724   1.083       .  S
C722       Br728   1.921       .  S
C729        C730   1.520       .  S
C729        C735   1.534       .  S
C729        C733   1.526       .  S
C729       C1053   1.526       .  S
C730        H737   1.087       .  S
C730        C731   1.362       .  D
C731        C732   1.556       .  S
C731        C763   1.485       .  S
C732        C736   1.550       .  S
C732        C734   1.564       .  S
C732        H738   1.110       .  S
C733        H739   1.087       .  S
C733        C734   1.364       .  D
C734       C1044   1.498       .  S
C735        H740   1.081       .  S
C735        C736   1.365       .  D
C736       C1084   1.486       .  S
C741       C1106   1.510   1_554  S
C741        C747   1.536       .  S
C741       C1109   1.541       .  S
C741       C1013   1.528       .  S
C742       C1105   1.510       .  S
C742        H749   1.086       .  S
C742        C743   1.359       .  D
C743       C1108   1.559       .  S
C743        C765   1.480       .  S
C744       C1107   1.559       .  S
C744        C748   1.541       .  S
C744        C746   1.553       .  S
C744        H750   1.110       .  S
C745       C1105   1.541       .  S
C745        H751   1.079       .  S
C745       C1110   1.365       .  D
C746       C1109   1.365       .  D
C746       C1004   1.500       .  S
C747        H752   1.086       .  S
C747        C748   1.367       .  D
C748       C1073   1.485       .  S
O753       Ni761   1.909       .  S
O753        C763   1.284       .  A
O754       Ni761   1.914       .  S
O754        C764   1.285       .  A
O755       Ni761   1.930       .  S
O755        C765   1.279       .  A
O756       Ni761   1.938       .  S
O756        C766   1.281       .  A
O757       Ni762   1.905       .  S
O757        C766   1.283       .  A
O758       Ni762   1.902       .  S
O758        C765   1.283       .  A
O759       Ni762   1.940       .  S
O759        C764   1.281       .  A
O760       Ni762   1.935       .  S
O760        C763   1.280       .  A
Ni761      Ni762   2.387       .  S
C764        C781   1.487       .  S
C766        C769   1.478       .  S
C767        C768   1.516       .  S
C767        C773   1.537       .  S
C767        C771   1.537       .  S
C767        C953   1.526       .  S
C768        H775   1.088       .  S
C768        C769   1.359       .  D
C769        C770   1.555       .  S
C770        C774   1.548       .  S
C770        C772   1.561       .  S
C770        H776   1.110       .  S
C771        H777   1.082       .  S
C771        C772   1.365       .  D
C772        C944   1.494       .  S
C773        H778   1.087       .  S
C773        C774   1.365       .  D
C774        C984   1.490       .  S
C779       C1144   1.506   1_554  S
C779        C785   1.528       .  S
C779       C1147   1.544       .  S
C779        C924   1.524       .  S
C780       C1143   1.506       .  S
C780        H787   1.089       .  S
C780        C781   1.355       .  D
C781       C1146   1.567       .  S
C782       C1145   1.567       .  S
C782        C786   1.558       .  S
C782        C784   1.553       .  S
C782        H788   1.110       .  S
C783       C1143   1.544       .  S
C783        H789   1.084       .  S
C783       C1148   1.370       .  D
C784       C1147   1.370       .  D
C784        C893   1.493       .  S
C785        H790   1.085       .  S
C785        C786   1.367       .  D
C786        C973   1.497       .  S
C791        C792   1.510       .  S
C791        C797   1.530       .  S
C791        C795   1.536   1_565  S
C791       C1064   1.524       .  S
C792        H799   1.087       .  S
C793        C794   1.563       .  S
C794        C798   1.551       .  S
C794        C796   1.560       .  S
C794        H800   1.110       .  S
C796       C1033   1.501       .  S
C797        H802   1.085       .  S
C798        C873   1.490       .  S
C803       C1168   1.531   1_554  S
C803        C809   1.532       .  S
C803       C1171   1.526       .  S
C803       C1024   1.534       .  S
C804       C1167   1.531       .  S
C804        H811   1.087       .  S
C805       C1170   1.554       .  S
C805        C828   1.489   1_655  S
C806       C1169   1.554       .  S
C806        C810   1.548       .  S
C806        C808   1.559       .  S
C806        H812   1.110       .  S
C807       C1167   1.526       .  S
C808        C993   1.487       .  S
C809        H814   1.078       .  S
C810        C884   1.485       .  S
O815       Ni823   1.900       .  S
O815        C825   1.282       .  A
O816       Ni823   1.909       .  S
O816        C826   1.284   1_565  A
O817       Ni823   1.947       .  S
O817        C827   1.281   1_565  A
O818       Ni823   1.943       .  S
O818        C828   1.283       .  A
O819       Ni824   1.918       .  S
O820       Ni824   1.909       .  S
O821       Ni824   1.940       .  S
O822       Ni824   1.944       .  S
C827        C831   1.496       .  S
C829        C830   1.504       .  S
C829        C835   1.538       .  S
C829        C833   1.540       .  S
C829        C964   1.532       .  S
C830        H837   1.087       .  S
C831        C832   1.576   1_545  S
C832        C836   1.552   1_565  S
C832        C834   1.556       .  S
C832        H838   1.109       .  S
C834        C933   1.509       .  S
C835        H840   1.075       .  S
C836        C864   1.498       .  S
C841       C1206   1.509       .  S
C841        C847   1.537   1_556  S
C841       C1209   1.540       .  S
C841        C913   1.533       .  S
C842       C1205   1.509       .  S
C842        H849   1.088       .  S
C843       C1208   1.560       .  S
C844       C1207   1.560   1_554  S
C844        C848   1.550       .  S
C844        C846   1.553       .  S
C844        H850   1.109       .  S
C845       C1205   1.540       .  S
C846        C904   1.502       .  S
C847        H852   1.083       .  S
C848        C853   1.492       .  S
C853        C858   1.405       .  A
C854        C855   1.393       .  A
C854       Br870   1.927       .  S
C855        H859   1.084       .  S
C856        C857   1.406       .  A
C857        C858   1.401       .  A
C857       Br869   1.909       .  S
C858        H861   1.082       .  S
C860        C866   1.407       .  A
C862        C863   1.386       .  A
C862        H867   1.085       .  S
C863       Br871   1.930       .  S
C864        C865   1.408   1_545  A
C865        C866   1.409       .  A
C865        H868   1.083       .  S
C866       Br872   1.917       .  S
C873        C874   1.416       .  A
C874        C875   1.392       .  A
C874       Br890   1.921       .  S
C875        H879   1.084       .  S
C876        C877   1.412   1_665  A
C876        C880   1.488       .  S
C877        C878   1.406   1_455  A
C877       Br889   1.910       .  S
C878        H881   1.083   1_655  S
C880        C886   1.415       .  A
C882        C883   1.398       .  A
C882        H887   1.083       .  S
C883       Br891   1.924       .  S
C884        C885   1.400       .  A
C885        C886   1.404       .  A
C885        H888   1.083       .  S
C886       Br892   1.918       .  S
C893       C1258   1.406   1_554  A
C893        C898   1.405       .  A
C894       C1257   1.406       .  A
C894        C895   1.409       .  A
C894       Br910   1.912       .  S
C895       C1260   1.409       .  A
C895        H899   1.083       .  S
C896       C1259   1.409   1_554  A
C896        C897   1.408       .  A
C896        C900   1.493       .  S
C897        C898   1.400       .  A
C897       Br909   1.919       .  S
C898        H901   1.078       .  S
C900        C902   1.400       .  A
C900       C1270   1.413       .  A
C902        C903   1.402       .  A
C902        H907   1.084       .  S
C903        C904   1.417       .  A
C903       Br911   1.919       .  S
C904       C1269   1.406       .  A
C905       C1268   1.406       .  A
C905        C906   1.408       .  A
C905        H908   1.083       .  S
C906       C1264   1.413       .  A
C906       Br912   1.918       .  S
C913       C1278   1.417       .  A
C913        C918   1.412       .  A
C914       C1277   1.417       .  A
C914        C915   1.401       .  A
C914       Br930   1.919       .  S
C915       C1280   1.404       .  A
C915        H919   1.081       .  S
C916       C1279   1.404       .  A
C916        C917   1.403       .  A
C916        C920   1.473       .  S
C917        C918   1.389       .  A
C917       Br929   1.921   1_556  S
C918        H921   1.084       .  S
C920        C922   1.397   1_556  A
C920       C1290   1.405       .  A
C922        C923   1.392       .  A
C922        H927   1.084       .  S
C923        C924   1.423       .  A
C923       Br931   1.927       .  S
C924       C1289   1.409   1_554  A
C925       C1288   1.409       .  A
C925        C926   1.394       .  A
C925        H928   1.078       .  S
C926       C1284   1.405       .  A
C926       Br932   1.911       .  S
C933        C934   1.425       .  A
C933        C938   1.405       .  A
C934        C935   1.403       .  A
C934       Br950   1.920       .  S
C935        C936   1.398       .  A
C935        H939   1.084       .  S
C936        C937   1.415       .  A
C936        C940   1.499       .  S
C937        C938   1.407       .  A
C937       Br949   1.911       .  S
C938        H941   1.083       .  S
C940        C942   1.409       .  A
C940        C946   1.410       .  A
C942        C943   1.408       .  A
C942        H947   1.080       .  S
C943        C944   1.407       .  A
C943       Br951   1.917       .  S
C944        C945   1.408       .  A
C945        C946   1.405       .  A
C945        H948   1.084       .  S
C946       Br952   1.918       .  S
C953        C954   1.423       .  A
C953        C958   1.412       .  A
C954        C955   1.389       .  A
C954       Br970   1.920       .  S
C955        C956   1.391       .  A
C955        H959   1.084       .  S
C956        C957   1.401       .  A
C956        C960   1.462       .  S
C957        C958   1.396       .  A
C957       Br969   1.917       .  S
C958        H961   1.076       .  S
C960        C962   1.394       .  A
C960        C966   1.401       .  A
C962        C963   1.396       .  A
C962        H967   1.084       .  S
C963        C964   1.421       .  A
C963       Br971   1.913       .  S
C964        C965   1.412       .  A
C965        C966   1.389       .  A
C965        H968   1.070       .  S
C966       Br972   1.923       .  S
C973        C974   1.419       .  A
C973        C978   1.407       .  A
C974        C975   1.393       .  A
C974       Br990   1.923       .  S
C975        C976   1.398       .  A
C975        H979   1.084       .  S
C976        C977   1.414       .  A
C976        C980   1.491       .  S
C977        C978   1.411       .  A
C977       Br989   1.918       .  S
C978        H981   1.083       .  S
C980        C982   1.400       .  A
C980        C986   1.416       .  A
C982        C983   1.399       .  A
C982        H987   1.082       .  S
C983        C984   1.413       .  A
C983       Br991   1.911       .  S
C984        C985   1.401       .  A
C985        C986   1.404       .  A
C985        H988   1.084       .  S
C986       Br992   1.920       .  S
C993       C1358   1.409   1_554  A
C993        C998   1.406       .  A
C994       C1357   1.409       .  A
C994        C995   1.408       .  A
C994      Br1010   1.915       .  S
C995       C1360   1.407       .  A
C995        H999   1.083       .  S
C996       C1359   1.407   1_554  A
C996        C997   1.406       .  A
C996       C1000   1.485       .  S
C997        C998   1.398       .  A
C997      Br1009   1.919       .  S
C998       H1001   1.084       .  S
C1000      C1002   1.395       .  A
C1000      C1370   1.410       .  A
C1002      C1003   1.398       .  A
C1002      H1007   1.084       .  S
C1003      C1004   1.424       .  A
C1003     Br1011   1.924       .  S
C1004      C1369   1.405       .  A
C1005      C1368   1.405       .  A
C1005      C1006   1.407       .  A
C1005      H1008   1.083       .  S
C1006      C1364   1.410       .  A
C1006     Br1012   1.915       .  S
C1013      C1014   1.425       .  A
C1013      C1382   1.411   1_554  A
C1014      C1015   1.395       .  A
C1014     Br1030   1.926       .  S
C1015      C1016   1.394       .  A
C1015      H1019   1.084       .  S
C1016      C1381   1.400   1_554  A
C1016      C1020   1.463       .  S
C1017      C1380   1.400       .  A
C1017      C1018   1.391       .  A
C1017     Br1029   1.918       .  S
C1018      C1377   1.411       .  A
C1018      H1021   1.074       .  S
C1020      C1386   1.396   1_554  A
C1020      C1026   1.397       .  A
C1022      C1384   1.396       .  A
C1022      C1023   1.400       .  A
C1022      H1027   1.084       .  S
C1023      C1388   1.421       .  A
C1023     Br1031   1.915       .  S
C1024      C1387   1.421   1_554  A
C1024      C1025   1.415       .  A
C1025      C1026   1.387       .  A
C1025      H1028   1.070       .  S
C1026     Br1032   1.924       .  S
C1033      C1034   1.422       .  A
C1033      C1038   1.406       .  A
C1034      C1035   1.397       .  A
C1034     Br1050   1.921       .  S
C1035      C1036   1.396       .  A
C1035      H1039   1.084       .  S
C1036      C1037   1.414       .  A
C1036      C1040   1.492       .  S
C1037      C1038   1.412       .  A
C1037     Br1049   1.916       .  S
C1038      H1041   1.083       .  S
C1040      C1042   1.409       .  A
C1040      C1046   1.407       .  A
C1042      C1043   1.408       .  A
C1042      H1047   1.083       .  S
C1043      C1044   1.410       .  A
C1043     Br1051   1.914       .  S
C1044      C1045   1.411       .  A
C1045      C1046   1.401       .  A
C1045      H1048   1.084       .  S
C1046     Br1052   1.919       .  S
C1053      C1054   1.423       .  A
C1053      C1058   1.412       .  A
C1054      C1055   1.396       .  A
C1054     Br1070   1.921       .  S
C1055      C1056   1.395       .  A
C1055      H1059   1.084       .  S
C1056      C1057   1.401       .  A
C1056      C1060   1.461       .  S
C1057      C1058   1.388       .  A
C1057     Br1069   1.923       .  S
C1058      H1061   1.074       .  S
C1060      C1062   1.393       .  A
C1060      C1066   1.400       .  A
C1062      C1063   1.391       .  A
C1062      H1067   1.084       .  S
C1063      C1064   1.424       .  A
C1063     Br1071   1.928       .  S
C1064      C1065   1.411       .  A
C1065      C1066   1.393       .  A
C1065      H1068   1.075       .  S
C1066     Br1072   1.918       .  S
C1073      C1074   1.410       .  A
C1073      C1078   1.405       .  A
C1074      C1075   1.391       .  A
C1074     Br1090   1.919       .  S
C1075      C1076   1.403       .  A
C1075      H1079   1.084       .  S
C1076      C1077   1.416       .  A
C1076      C1080   1.491       .  S
C1077      C1078   1.405       .  A
C1077     Br1089   1.918       .  S
C1078      H1081   1.083       .  S
C1080      C1082   1.401       .  A
C1080      C1086   1.419       .  A
C1082      C1083   1.399       .  A
C1082      H1087   1.081       .  S
C1083      C1084   1.414       .  A
C1083     Br1091   1.921       .  S
C1084      C1085   1.398       .  A
C1085      C1086   1.401       .  A
C1085      H1088   1.083       .  S
C1086     Br1092   1.921       .  S
C1093      C1094   1.520       .  S
C1093      C1099   1.534       .  S
C1093      C1097   1.526       .  S
C1093      C1417   1.526       .  S
C1094      H1101   1.087       .  S
C1094      C1095   1.362       .  D
C1095      C1096   1.556       .  S
C1095      C1127   1.485       .  S
C1096      C1100   1.550       .  S
C1096      C1098   1.564       .  S
C1096      H1102   1.110       .  S
C1097      H1103   1.087       .  S
C1097      C1098   1.364       .  D
C1098      C1408   1.498       .  S
C1099      H1104   1.081       .  S
C1099      C1100   1.365       .  D
C1100      C1448   1.486       .  S
C1105      C1111   1.536       .  S
C1105      C1377   1.528       .  S
C1106      H1113   1.086       .  S
C1106      C1107   1.359   1_556  D
C1107      C1129   1.480   1_554  S
C1108      C1112   1.541       .  S
C1108      C1110   1.553       .  S
C1108      H1114   1.110       .  S
C1109      H1115   1.079   1_554  S
C1110      C1368   1.500       .  S
C1111      H1116   1.086       .  S
C1111      C1112   1.367       .  D
C1112      C1437   1.485       .  S
O1117     Ni1125   1.909       .  S
O1117      C1127   1.284       .  A
O1118     Ni1125   1.914       .  S
O1118      C1128   1.285       .  A
O1119     Ni1125   1.930       .  S
O1119      C1129   1.279       .  A
O1120     Ni1125   1.938       .  S
O1120      C1130   1.281       .  A
O1121     Ni1126   1.905       .  S
O1121      C1130   1.283       .  A
O1122     Ni1126   1.902       .  S
O1122      C1129   1.283       .  A
O1123     Ni1126   1.940       .  S
O1123      C1128   1.281       .  A
O1124     Ni1126   1.935       .  S
O1124      C1127   1.280       .  A
Ni1125    Ni1126   2.387       .  S
C1128      C1145   1.487   1_556  S
C1130      C1133   1.478       .  S
C1131      C1132   1.516       .  S
C1131      C1137   1.537       .  S
C1131      C1135   1.537       .  S
C1131      C1317   1.526       .  S
C1132      H1139   1.088       .  S
C1132      C1133   1.359       .  D
C1133      C1134   1.555       .  S
C1134      C1138   1.548       .  S
C1134      C1136   1.561       .  S
C1134      H1140   1.110       .  S
C1135      H1141   1.082       .  S
C1135      C1136   1.365       .  D
C1136      C1308   1.494       .  S
C1137      H1142   1.087       .  S
C1137      C1138   1.365       .  D
C1138      C1348   1.490       .  S
C1143      C1149   1.528       .  S
C1143      C1288   1.524       .  S
C1144      H1151   1.089       .  S
C1144      C1145   1.355   1_556  D
C1146      C1150   1.558       .  S
C1146      C1148   1.553       .  S
C1146      H1152   1.110       .  S
C1147      H1153   1.084   1_554  S
C1148      C1257   1.493       .  S
C1149      H1154   1.085       .  S
C1149      C1150   1.367       .  D
C1150      C1337   1.497       .  S
C1155      C1156   1.510       .  S
C1155      C1161   1.530       .  S
C1155      C1159   1.536   1_565  S
C1155      C1428   1.524       .  S
C1156      H1163   1.087       .  S
C1157      C1158   1.563       .  S
C1158      C1162   1.551       .  S
C1158      C1160   1.560       .  S
C1158      H1164   1.110       .  S
C1160      C1397   1.501       .  S
C1161      H1166   1.085       .  S
C1162      C1237   1.490       .  S
C1167      C1173   1.532       .  S
C1167      C1388   1.534       .  S
C1168      H1175   1.087       .  S
C1169      C1192   1.489   1_654  S
C1170      C1174   1.548       .  S
C1170      C1172   1.559       .  S
C1170      H1176   1.110       .  S
C1172      C1357   1.487       .  S
C1173      H1178   1.078       .  S
C1174      C1248   1.485       .  S
O1179     Ni1187   1.900       .  S
O1179      C1189   1.282       .  A
O1180     Ni1187   1.909       .  S
O1180      C1190   1.284   1_565  A
O1181     Ni1187   1.947       .  S
O1181      C1191   1.281   1_565  A
O1182     Ni1187   1.943       .  S
O1182      C1192   1.283       .  A
O1183     Ni1188   1.918       .  S
O1184     Ni1188   1.909       .  S
O1185     Ni1188   1.940       .  S
O1186     Ni1188   1.944       .  S
C1191      C1195   1.496       .  S
C1193      C1194   1.504       .  S
C1193      C1199   1.538       .  S
C1193      C1197   1.540       .  S
C1193      C1328   1.532       .  S
C1194      H1201   1.087       .  S
C1195      C1196   1.576   1_545  S
C1196      C1200   1.552   1_565  S
C1196      C1198   1.556       .  S
C1196      H1202   1.109       .  S
C1198      C1297   1.509       .  S
C1199      H1204   1.075       .  S
C1200      C1228   1.498       .  S
C1205      C1211   1.537       .  S
C1205      C1277   1.533       .  S
C1206      H1213   1.088       .  S
C1208      C1212   1.550       .  S
C1208      C1210   1.553       .  S
C1208      H1214   1.109       .  S
C1210      C1268   1.502       .  S
C1211      H1216   1.083       .  S
C1212      C1217   1.492       .  S
C1217      C1222   1.405       .  A
C1218      C1219   1.393       .  A
C1218     Br1234   1.927       .  S
C1219      H1223   1.084       .  S
C1220      C1221   1.406       .  A
C1221      C1222   1.401       .  A
C1221     Br1233   1.909       .  S
C1222      H1225   1.082       .  S
C1224      C1230   1.407       .  A
C1226      C1227   1.386       .  A
C1226      H1231   1.085       .  S
C1227     Br1235   1.930       .  S
C1228      C1229   1.408   1_545  A
C1229      C1230   1.409       .  A
C1229      H1232   1.083       .  S
C1230     Br1236   1.917       .  S
C1237      C1238   1.416       .  A
C1238      C1239   1.392       .  A
C1238     Br1254   1.921       .  S
C1239      H1243   1.084       .  S
C1240      C1241   1.412   1_665  A
C1240      C1244   1.488       .  S
C1241      C1242   1.406   1_455  A
C1241     Br1253   1.910       .  S
C1242      H1245   1.083   1_655  S
C1244      C1250   1.415       .  A
C1246      C1247   1.398       .  A
C1246      H1251   1.083       .  S
C1247     Br1255   1.924       .  S
C1248      C1249   1.400       .  A
C1249      C1250   1.404       .  A
C1249      H1252   1.083       .  S
C1250     Br1256   1.918       .  S
C1257      C1262   1.405       .  A
C1258      C1259   1.409       .  A
C1258     Br1274   1.912       .  S
C1259      H1263   1.083       .  S
C1260      C1261   1.408       .  A
C1260      C1264   1.493       .  S
C1261      C1262   1.400       .  A
C1261     Br1273   1.919       .  S
C1262      H1265   1.078       .  S
C1264      C1266   1.400       .  A
C1266      C1267   1.402       .  A
C1266      H1271   1.084       .  S
C1267      C1268   1.417       .  A
C1267     Br1275   1.919       .  S
C1269      C1270   1.408       .  A
C1269      H1272   1.083   1_554  S
C1270     Br1276   1.918   1_554  S
C1277      C1282   1.412       .  A
C1278      C1279   1.401       .  A
C1278     Br1294   1.919       .  S
C1279      H1283   1.081       .  S
C1280      C1281   1.403       .  A
C1280      C1284   1.473       .  S
C1281      C1282   1.389       .  A
C1281     Br1293   1.921       .  S
C1282      H1285   1.084       .  S
C1284      C1286   1.397       .  A
C1286      C1287   1.392       .  A
C1286      H1291   1.084       .  S
C1287      C1288   1.423       .  A
C1287     Br1295   1.927       .  S
C1289      C1290   1.394       .  A
C1289      H1292   1.078       .  S
C1290     Br1296   1.911       .  S
C1297      C1298   1.425       .  A
C1297      C1302   1.405       .  A
C1298      C1299   1.403       .  A
C1298     Br1314   1.920       .  S
C1299      C1300   1.398       .  A
C1299      H1303   1.084       .  S
C1300      C1301   1.415       .  A
C1300      C1304   1.499       .  S
C1301      C1302   1.407       .  A
C1301     Br1313   1.911       .  S
C1302      H1305   1.083       .  S
C1304      C1306   1.409       .  A
C1304      C1310   1.410       .  A
C1306      C1307   1.408       .  A
C1306      H1311   1.080       .  S
C1307      C1308   1.407       .  A
C1307     Br1315   1.917       .  S
C1308      C1309   1.408       .  A
C1309      C1310   1.405       .  A
C1309      H1312   1.084       .  S
C1310     Br1316   1.918       .  S
C1317      C1318   1.423       .  A
C1317      C1322   1.412       .  A
C1318      C1319   1.389       .  A
C1318     Br1334   1.920       .  S
C1319      C1320   1.391       .  A
C1319      H1323   1.084       .  S
C1320      C1321   1.401       .  A
C1320      C1324   1.462       .  S
C1321      C1322   1.396       .  A
C1321     Br1333   1.917       .  S
C1322      H1325   1.076       .  S
C1324      C1326   1.394       .  A
C1324      C1330   1.401       .  A
C1326      C1327   1.396       .  A
C1326      H1331   1.084       .  S
C1327      C1328   1.421       .  A
C1327     Br1335   1.913       .  S
C1328      C1329   1.412       .  A
C1329      C1330   1.389       .  A
C1329      H1332   1.069       .  S
C1330     Br1336   1.923       .  S
C1337      C1338   1.419       .  A
C1337      C1342   1.407       .  A
C1338      C1339   1.393       .  A
C1338     Br1354   1.923       .  S
C1339      C1340   1.398       .  A
C1339      H1343   1.084       .  S
C1340      C1341   1.414       .  A
C1340      C1344   1.491       .  S
C1341      C1342   1.411       .  A
C1341     Br1353   1.918       .  S
C1342      H1345   1.083       .  S
C1344      C1346   1.400       .  A
C1344      C1350   1.416       .  A
C1346      C1347   1.399       .  A
C1346      H1351   1.082       .  S
C1347      C1348   1.413       .  A
C1347     Br1355   1.911       .  S
C1348      C1349   1.401       .  A
C1349      C1350   1.404       .  A
C1349      H1352   1.084       .  S
C1350     Br1356   1.920       .  S
C1357      C1362   1.406       .  A
C1358      C1359   1.408       .  A
C1358     Br1374   1.915       .  S
C1359      H1363   1.083       .  S
C1360      C1361   1.406       .  A
C1360      C1364   1.485       .  S
C1361      C1362   1.398       .  A
C1361     Br1373   1.919       .  S
C1362      H1365   1.084       .  S
C1364      C1366   1.395       .  A
C1366      C1367   1.398       .  A
C1366      H1371   1.084       .  S
C1367      C1368   1.424       .  A
C1367     Br1375   1.924       .  S
C1369      C1370   1.407       .  A
C1369      H1372   1.083   1_554  S
C1370     Br1376   1.915   1_554  S
C1377      C1378   1.425       .  A
C1378      C1379   1.395       .  A
C1378     Br1394   1.926       .  S
C1379      C1380   1.394       .  A
C1379      H1383   1.084       .  S
C1380      C1384   1.463       .  S
C1381      C1382   1.391       .  A
C1381     Br1393   1.918       .  S
C1382      H1385   1.074       .  S
C1384      C1390   1.397       .  A
C1386      C1387   1.400       .  A
C1386      H1391   1.083       .  S
C1387     Br1395   1.915       .  S
C1388      C1389   1.415       .  A
C1389      C1390   1.387       .  A
C1389      H1392   1.071       .  S
C1390     Br1396   1.924       .  S
C1397      C1398   1.422       .  A
C1397      C1402   1.406       .  A
C1398      C1399   1.397       .  A
C1398     Br1414   1.921       .  S
C1399      C1400   1.396       .  A
C1399      H1403   1.084       .  S
C1400      C1401   1.414       .  A
C1400      C1404   1.492       .  S
C1401      C1402   1.412       .  A
C1401     Br1413   1.916       .  S
C1402      H1405   1.083       .  S
C1404      C1406   1.409       .  A
C1404      C1410   1.407       .  A
C1406      C1407   1.408       .  A
C1406      H1411   1.083       .  S
C1407      C1408   1.410       .  A
C1407     Br1415   1.914       .  S
C1408      C1409   1.411       .  A
C1409      C1410   1.401       .  A
C1409      H1412   1.084       .  S
C1410     Br1416   1.919       .  S
C1417      C1418   1.423       .  A
C1417      C1422   1.412       .  A
C1418      C1419   1.396       .  A
C1418     Br1434   1.921       .  S
C1419      C1420   1.395       .  A
C1419      H1423   1.084       .  S
C1420      C1421   1.401       .  A
C1420      C1424   1.461       .  S
C1421      C1422   1.388       .  A
C1421     Br1433   1.923       .  S
C1422      H1425   1.074       .  S
C1424      C1426   1.393       .  A
C1424      C1430   1.400       .  A
C1426      C1427   1.391       .  A
C1426      H1431   1.084       .  S
C1427      C1428   1.424       .  A
C1427     Br1435   1.928       .  S
C1428      C1429   1.411       .  A
C1429      C1430   1.393       .  A
C1429      H1432   1.075       .  S
C1430     Br1436   1.918       .  S
C1437      C1438   1.410       .  A
C1437      C1442   1.405       .  A
C1438      C1439   1.391       .  A
C1438     Br1454   1.919       .  S
C1439      C1440   1.403       .  A
C1439      H1443   1.084       .  S
C1440      C1441   1.416       .  A
C1440      C1444   1.491       .  S
C1441      C1442   1.405       .  A
C1441     Br1453   1.918       .  S
C1442      H1445   1.083       .  S
C1444      C1446   1.401       .  A
C1444      C1450   1.419       .  A
C1446      C1447   1.399       .  A
C1446      H1451   1.081       .  S
C1447      C1448   1.414       .  A
C1447     Br1455   1.921       .  S
C1448      C1449   1.398       .  A
C1449      C1450   1.401       .  A
C1449      H1452   1.083       .  S
C1450     Br1456   1.921       .  S
