geometry optimzed in LAMMPS
_audit_creation_date              2020-11-30 
_audit_creation_method            'lammps2cif' 
_symmetry_space_group_name_H-M    'P1' 
_symmetry_Int_Tables_number       1 
_symmetry_cell_setting            triclinic 
loop_ 
_symmetry_equiv_pos_as_xyz 
  x,y,z 
_cell_length_a                    32.08162786 
_cell_length_b                    32.39131659002503 
_cell_length_c                    29.590834189534636 
_cell_angle_alpha                 87.62535867587117 
_cell_angle_beta                  94.49835648043684 
_cell_angle_gamma                 85.36175742233081 
loop_ 
_atom_site_label 
_atom_site_type_symbol 
_atom_site_fract_x 
_atom_site_fract_y 
_atom_site_fract_z 
_atom_site_charge 
C1          C  0.34969832  0.30237423  0.29796528     0.85100
C2          C  0.34454869  0.34918696  0.29710321    -0.55200
C3          C  0.30462663  0.36536556  0.30284361     0.08000
C4          C  0.27518752  0.33132411  0.31549696     0.18900
C5          C  0.33849417  0.28838267  0.34528203    -0.55900
C6          C  0.29916096  0.30316098  0.35490227     0.08100
C7          C  0.31484314  0.29080001  0.26459823    -0.55400
C8          C  0.27589188  0.30396591  0.27465136     0.08700
H9          H  0.36878838  0.36739359  0.28494920     0.13200
H10         H  0.24316246  0.34374345  0.32247208    -0.01100
H11         H  0.35835948  0.26598482  0.36735600     0.13500
H12         H  0.31971226  0.26877650  0.23828252     0.13300
C13         C  0.36316568  0.05513296  0.30541075     0.85100
C14         C  0.38282362  0.03997251  0.35319333    -0.55200
C15         C  0.42412617  0.04616760  0.36004167     0.08000
C16         C  0.44163679  0.06830543  0.32123794     0.16900
C17         C  0.37147672  0.10187459  0.30030115    -0.55900
C18         C  0.41381083  0.10806269  0.30771983     0.08100
C19         C  0.39287326  0.03460625  0.27241879    -0.55400
C20         C  0.43387280  0.04161191  0.28147244     0.08700
H21         H  0.36574961  0.02529538  0.37885782     0.13200
H22         H  0.47500747  0.07392525  0.32968710    -0.01100
H23         H  0.34817843  0.12559282  0.28507486     0.13500
H24         H  0.38248953  0.01573243  0.24490140     0.13300
C25         C  0.05341408  0.35592478  0.42541477     0.85100
C26         C  0.09736586  0.33437886  0.44164174    -0.55200
C27         C  0.10311806  0.29357332  0.43049449     0.08000
C28         C  0.06405252  0.27778468  0.40480901     0.18900
C29         C  0.04846656  0.34947062  0.37452881    -0.55900
C30         C  0.05250406  0.30831205  0.36321379     0.08100
C31         C  0.02264845  0.32759863  0.44503136    -0.55400
C32         C  0.02845003  0.28712970  0.43578880     0.08700
H33         H  0.12181766  0.35021744  0.45942679     0.13200
H34         H  0.06826830  0.24473238  0.39615263    -0.01100
H35         H  0.03749827  0.37477878  0.35016575     0.13500
H36         H  0.99919460  0.33832103  0.46737325     0.13300
C37         C  0.12008484  0.17514480  0.18929227     0.85100
C38         C  0.15566226  0.18794994  0.22091513    -0.55200
C39         C  0.19429423  0.17438936  0.21003395     0.08000
C40         C  0.19424642  0.14632287  0.16991261     0.18900
C41         C  0.13008304  0.18850018  0.14096055    -0.55900
C42         C  0.16936618  0.17344545  0.13068376     0.08100
C43         C  0.12597359  0.12842341  0.19107495    -0.55400
C44         C  0.16537935  0.11262057  0.18330872     0.08700
H45         H  0.15139535  0.21082307  0.24648104     0.13200
H46         H  0.22611507  0.13379747  0.16248374    -0.01100
H47         H  0.10956704  0.21012247  0.11864187     0.13500
H48         H  0.10261157  0.10982944  0.20457290     0.13300
C49         C  0.31076152  0.35699612  0.06320302     0.85100
C50         C  0.30276595  0.37159275  0.11060339    -0.55200
C51         C  0.31258450  0.41095826  0.11769277     0.08000
C52         C  0.33063770  0.43240288  0.07684897     0.18900
C53         C  0.28652976  0.39012476  0.03062900    -0.55900
C54         C  0.29701138  0.42943198  0.03759063     0.08100
C55         C  0.35709087  0.36303337  0.05758497    -0.55400
C56         C  0.36754298  0.40299523  0.06361284     0.08700
H57         H  0.28833700  0.35337744  0.13581780     0.13200
H58         H  0.33850226  0.46465909  0.08254576    -0.01100
H59         H  0.26231830  0.38320519  0.00492493     0.13500
H60         H  0.37851714  0.33879371  0.04594764     0.13300
C61         C  0.41753014  0.11518881  0.06442101     0.85100
C62         C  0.44938303  0.14236201  0.04535408    -0.55200
C63         C  0.44412634  0.18307936  0.05363188     0.08000
C64         C  0.40766919  0.19380580  0.08337479     0.18900
C65         C  0.42168356  0.12251486  0.11542358    -0.55900
C66         C  0.41783083  0.16401090  0.12614422     0.08100
C67         C  0.37421079  0.13721206  0.04686392    -0.55400
C68         C  0.36878016  0.17827742  0.05659267     0.08700
H69         H  0.47300409  0.13062470  0.02369868     0.13200
H70         H  0.40375056  0.22708962  0.09113568    -0.01100
H71         H  0.43195120  0.09750756  0.14034951     0.13500
H72         H  0.34977158  0.12138269  0.02902252     0.13300
C73         C  0.10292084  0.06586260  0.42636889     0.85100
C74         C  0.11091833  0.05665295  0.37725552    -0.55200
C75         C  0.15064545  0.06301152  0.36593519     0.08000
C76         C  0.17806817  0.08009384  0.40471371     0.18900
C77         C  0.13836726  0.04064425  0.45536017    -0.55900
C78         C  0.17742960  0.04805876  0.44415933     0.08100
C79         C  0.11303106  0.11122471  0.43178436    -0.55400
C80         C  0.15254673  0.11861193  0.42046600     0.08700
H81         H  0.08803034  0.04294118  0.35474220     0.13200
H82         H  0.21029102  0.08576110  0.39614729    -0.01100
H83         H  0.13304727  0.01803090  0.48204590     0.13500
H84         H  0.09202461  0.13469267  0.44540238     0.13300
C85         C  0.05607581  0.37130234  0.19239115     0.85100
C86         C  0.03674082  0.37906591  0.14451011    -0.55200
C87         C  0.04289307  0.41611726  0.12470491     0.08000
C88         C  0.07250446  0.44114883  0.15322873     0.18900
C89         C  0.10378619  0.37414390  0.18921251    -0.55900
C90         C  0.11264982  0.41216579  0.17020062     0.08100
C91         C  0.04310640  0.41025202  0.21761660    -0.55400
C92         C  0.05101910  0.44641597  0.19651979     0.08700
H93         H  0.01537785  0.35811964  0.12917368     0.13200
H94         H  0.07828772  0.47094379  0.13576887    -0.01100
H95         H  0.12739423  0.35270945  0.20786494     0.13500
H96         H  0.02610055  0.40954096  0.24801727     0.13300
O97         O  0.03896356  0.39959995  0.48486751    -0.82300
O98         O  0.43999120  0.03807063  0.06870358    -0.67000
O99         O  0.46994189  0.45146950  0.48437911    -1.13600
C100        C  0.06111359  0.05327503  0.43995769     1.04600
O101        O  0.42818425  0.07178766  0.00363584    -0.80200
O102        O  0.45608030  0.06887562  0.42466313    -0.67800
Ni103      Ni  0.48287259  0.39562456  0.00209946     1.34900
C104        C  0.45086062  0.03763237  0.40184313     0.83300
O105        O  0.41545397  0.45563870  0.05476032    -0.80800
O106        O  0.42835762  0.39309806  0.02390380    -0.91000
C107        C  0.42678393  0.07197056  0.04607219     0.82900
O108        O  0.00537151  0.40034059  0.06040124    -0.69200
O109        O  0.03617025  0.08013991  0.45738376    -0.88500
C110        C  0.01565839  0.42984980  0.08379111     0.83700
C111        C  0.40648827  0.41818450  0.04707228     1.05300
H112        H  0.02132040  0.02236436  0.02312592     0.37100
O113        O  0.99755204  0.02128795  0.50175325    -1.11200
O114        O  0.47088972  0.00221893  0.41076022    -0.67800
Ni115      Ni  0.01281340  0.47971669  0.45758639     1.26300
O116        O  0.50093061  0.46740136  0.07497645    -0.68100
O117        O  0.05450929  0.51290518  0.43405889    -0.80400
C118        C  0.04289381  0.39917883  0.44306405     0.83100
O119        O  0.02999192  0.43277754  0.41983583    -0.67500
Ni120      Ni  0.98229399  0.07646008  0.48181233     1.27400
Ni121      Ni  0.45634965  0.48994198  0.02946384     1.26100
H122        H  0.44570725  0.45217845  0.46269505     0.37600
O123        O  0.32126446  0.50065658  0.29451567    -0.82300
O124        O  0.18552566  0.41638751  0.20186788    -0.67000
O125        O  0.26711785  0.49569098  0.22394253    -1.13600
C126        C  0.16723132  0.04585974  0.32444976     1.04600
O127        O  0.14487618  0.47289907  0.18624832    -0.80200
O128        O  0.15031856  0.04842745  0.21062798    -0.67800
Ni129      Ni  0.32399456  0.47861682  0.23651323     1.34900
C130        C  0.17902108  0.07240930  0.20689402     0.83300
O131        O  0.26271242  0.42714751  0.17026615    -0.80800
O132        O  0.32561683  0.45460908  0.17830718    -0.91000
C133        C  0.15009288  0.43387060  0.18606769     0.82900
O134        O  0.32037195  0.42636712  0.26546852    -0.69200
O135        O  0.14129989  0.02753098  0.29862079    -0.88500
C136        C  0.29118937  0.40491347  0.27640278     0.83700
C137        C  0.29957315  0.43237649  0.15783609     1.05300
H138        H  0.20069328  0.46582470  0.28552402     0.37100
O139        O  0.20010816  0.48350700  0.25833847    -1.11200
O140        O  0.21556146  0.06541584  0.22698886    -0.67800
Ni141      Ni  0.23925899  0.02288336  0.27185156     1.26300
O142        O  0.25312532  0.41428748  0.26197405    -0.68100
O143        O  0.20621223  0.04812557  0.31750108    -0.80400
C144        C  0.32034294  0.03862421  0.29656852     0.83100
O145        O  0.28503812  0.05897804  0.28542403    -0.67500
Ni146      Ni  0.14371097  0.99912881  0.24312022     1.27400
Ni147      Ni  0.22928504  0.45407357  0.21395455     1.26100
H148        H  0.26558274  0.01272459  0.19842189     0.37600
O149        O  0.23015994  0.19104490  0.09642404    -0.82300
O150        O  0.29909222  0.26979163  0.42947010    -0.67000
O151        O  0.23301200  0.25232380  0.02978671    -1.13600
C152        C  0.17212320  0.15732197  0.43046459     1.04600
O153        O  0.23886595  0.28038556  0.38717037    -0.80200
O154        O  0.16170782  0.25658085  0.40368085    -0.67800
Ni155      Ni  0.25590011  0.24266081  0.09027840     1.34900
C156        C  0.14365235  0.26712427  0.43857358     0.83300
O157        O  0.29724626  0.30258761  0.01322455    -0.80800
O158        O  0.28137652  0.29435092  0.08606170    -0.91000
C159        C  0.27816886  0.28410991  0.39283885     0.82900
O160        O  0.30832766  0.21289504  0.08163494    -0.69200
O161        O  0.19013030  0.17516145  0.39876035    -0.88500
C162        C  0.32799457  0.20446570  0.04724034     0.83700
C163        C  0.29656101  0.31460803  0.05390137     1.05300
H164        H  0.25670775  0.19307607  0.45545187     0.37100
O165        O  0.23824261  0.21820687  0.45500628    -1.11200
O166        O  0.15805822  0.25475619  0.47884245    -0.67800
Ni167      Ni  0.20126110  0.21142586  0.00181564     1.26300
O168        O  0.31457100  0.21805872  0.00681068    -0.68100
O169        O  0.17149884  0.17008458  0.47089655    -0.80400
C170        C  0.19049955  0.18962054  0.09150201     0.83100
O171        O  0.17011785  0.20299972  0.05425938    -0.67500
Ni172      Ni  0.21468270  0.22763401  0.39439006     1.27400
Ni173      Ni  0.26922265  0.26004076  0.48241659     1.26100
H174        H  0.21478538  0.27758385  0.02978862     0.37600
O175        O  0.42337526  0.30096061  0.29870399    -0.82300
O176        O  0.07756795  0.21799573  0.23516403    -0.67000
O177        O  0.47029877  0.27283675  0.23137464    -1.13600
C178        C  0.43618605  0.14069654  0.28507025     1.04600
O179        O  0.04680200  0.17297533  0.19217793    -0.80200
O180        O  0.46837106  0.15092337  0.18664080    -0.67800
Ni181      Ni  0.45866750  0.32359324  0.25673310     1.34900
C182        C  0.43859456  0.17637116  0.17047156     0.83300
O183        O  0.05130993  0.29878332  0.21789265    -0.80800
O184        O  0.49559913  0.34611790  0.21754387    -0.91000
C185        C  0.07917628  0.19061222  0.20537281     0.82900
O186        O  0.50166904  0.32242817  0.30364522    -0.69200
O187        O  0.47304948  0.12865266  0.27400451    -0.88500
C188        C  0.03104535  0.29652421  0.31971328     0.83700
C189        C  0.03420553  0.33591706  0.21162986     1.05300
H190        H  0.00737603  0.19761210  0.29040057     0.37100
O191        O  0.99924846  0.20183402  0.25831739    -1.11200
O192        O  0.42818521  0.20994676  0.19030743    -0.67800
Ni193      Ni  0.44401905  0.22605267  0.25332542     1.26300
O194        O  0.04066966  0.26274950  0.30036891    -0.68100
O195        O  0.41931200  0.17761594  0.27690197    -0.80400
C196        C  0.39059971  0.28511611  0.28395609     0.83100
O197        O  0.39231505  0.25703111  0.25500979    -0.67500
Ni198      Ni  0.01077646  0.15066058  0.23426871     1.27400
Ni199      Ni  0.02582139  0.24887647  0.23719678     1.26100
H200        H  0.46204212  0.27695537  0.19926611     0.37600
C201        C  0.26928726  0.46659001  0.46458065    -0.14800
C202        C  0.27488139  0.46534342  0.01167019     0.07400
C203        C  0.24959852  0.99490984  0.03827316    -0.14800
C204        C  0.22183127  0.02467907  0.51412660    -0.14800
C205        C  0.21459793  0.02448939  0.46678829     0.07400
C206        C  0.24032304  0.49588397  0.44121299    -0.14800
H207        H  0.28535098  0.44291378  0.44593604     0.11400
H208        H  0.25302289  0.99379959  0.07503410     0.11400
H209        H  0.20172665  0.04539782  0.03427332     0.11400
H210        H  0.23408152  0.49440913  0.40481986     0.11400
C211        C  0.96309935  0.26523718  0.46625678    -0.14800
C212        C  0.00620233  0.25681301  0.46119823     0.07400
C213        C  0.52938074  0.22547699  0.48867529    -0.14800
C214        C  0.50941600  0.20298505  0.02059684    -0.14800
C215        C  0.46664899  0.21239652  0.02706399     0.07400
C216        C  0.44362164  0.24325892  0.49879652    -0.14800
H217        H  0.94486818  0.28977394  0.44566420     0.11400
H218        H  0.56282667  0.21932633  0.48631510     0.11400
H219        H  0.52759123  0.17799177  0.04054919     0.11400
H220        H  0.41021199  0.24956409  0.50124169     0.11400
C221        C  0.50875782  0.51493229  0.27809661    -0.14800
C222        C  0.46835560  0.02583996  0.25613355     0.07400
C223        C  0.46274312  0.02223085  0.20916850    -0.14800
C224        C  0.99470885  0.00263343  0.18691707    -0.14800
C225        C  0.03179377  0.48522708  0.21049024     0.07400
C226        C  0.54014917  0.49483775  0.25570405    -0.14800
H227        H  0.51430111  0.51764170  0.31434438     0.11400
H228        H  0.43310957  0.03238920  0.19037356     0.11400
H229        H  0.98834004  0.99571081  0.15181543     0.11400
H230        H  0.06853893  0.48166493  0.27502390     0.11400
C231        C  0.22326857  0.23959912  0.19567630    -0.14800
C232        C  0.22571500  0.20222594  0.22197522     0.07400
C233        C  0.23968953  0.20116855  0.26784218    -0.14800
C234        C  0.24868984  0.23752919  0.28791708    -0.14800
C235        C  0.24558577  0.27513554  0.26188189     0.07400
C236        C  0.23221289  0.27602217  0.21578239    -0.14800
H237        H  0.21042246  0.24153856  0.16074174     0.11400
H238        H  0.24020794  0.17284274  0.28880791     0.11400
H239        H  0.26187679  0.23531557  0.32266542     0.11400
H240        H  0.23177845  0.30433164  0.19480843     0.11400
C241        C  0.34974825  0.30243323  0.79832410     0.85100
C242        C  0.34446668  0.34923667  0.79684196    -0.55200
C243        C  0.30460759  0.36544721  0.80266881     0.08000
C244        C  0.27529516  0.33152670  0.81602327     0.18900
C245        C  0.33881582  0.28890892  0.84594513    -0.55900
C246        C  0.29943966  0.30365309  0.85560968     0.08100
C247        C  0.31472600  0.29034351  0.76548944    -0.55400
C248        C  0.27584904  0.30377037  0.77556409     0.08700
H249        H  0.36859188  0.36736083  0.78427548     0.13200
H250        H  0.24330494  0.34401409  0.82304538    -0.01100
H251        H  0.35876507  0.26663269  0.86807892     0.13500
H252        H  0.31943268  0.26796915  0.73949103     0.13300
C253        C  0.36362237  0.05510816  0.80470895     0.85100
C254        C  0.38318916  0.03992566  0.85246010    -0.55200
C255        C  0.42438978  0.04633602  0.85949418     0.08000
C256        C  0.44193261  0.06872917  0.82082800     0.16900
C257        C  0.37164447  0.10192118  0.79972546    -0.55900
C258        C  0.41389931  0.10836145  0.80724357     0.08100
C259        C  0.39353324  0.03482511  0.77174333    -0.55400
C260        C  0.43446628  0.04209381  0.78093576     0.08700
H261        H  0.36612555  0.02505105  0.87799882     0.13200
H262        H  0.47523161  0.07456561  0.82940601    -0.01100
H263        H  0.34826694  0.12549605  0.78435220     0.13500
H264        H  0.38332953  0.01595268  0.74414671     0.13300
C265        C  0.05306948  0.35614356  0.92514405     0.85100
C266        C  0.09702977  0.33458697  0.94136421    -0.55200
C267        C  0.10281447  0.29378156  0.93019870     0.08000
C268        C  0.06372206  0.27800865  0.90447871     0.18900
C269        C  0.04813054  0.34972696  0.87423586    -0.55900
C270        C  0.05220113  0.30856904  0.86286101     0.08100
C271        C  0.02231351  0.32782394  0.94467954    -0.55400
C272        C  0.02808029  0.28736207  0.93547178     0.08700
H273        H  0.12145604  0.35041534  0.95920793     0.13200
H274        H  0.06792816  0.24496177  0.89580731    -0.01100
H275        H  0.03718125  0.37506021  0.84989659     0.13500
H276        H  0.99888164  0.33857794  0.96702651     0.13300
C277        C  0.12022768  0.17535173  0.68907435     0.85100
C278        C  0.15559066  0.18817237  0.72094455    -0.55200
C279        C  0.19431564  0.17469689  0.71031802     0.08000
C280        C  0.19458964  0.14666559  0.67018135     0.18900
C281        C  0.13048512  0.18873034  0.64085664    -0.55900
C282        C  0.16985833  0.17375117  0.63083074     0.08100
C283        C  0.12620108  0.12861121  0.69089078    -0.55400
C284        C  0.16571539  0.11289279  0.68336336     0.08700
H285        H  0.15113788  0.21097803  0.74654766     0.13200
H286        H  0.22654484  0.13421856  0.66296271    -0.01100
H287        H  0.11002980  0.21029739  0.61841022     0.13500
H288        H  0.10281894  0.10995803  0.70424589     0.13300
C289        C  0.31112818  0.35734451  0.56248695     0.85100
C290        C  0.30321036  0.37173192  0.61003407    -0.55200
C291        C  0.31296737  0.41108891  0.61733839     0.08000
C292        C  0.33101863  0.43268687  0.57661426     0.18900
C293        C  0.28683894  0.39066327  0.53012608    -0.55900
C294        C  0.29734964  0.42992325  0.53742803     0.08100
C295        C  0.35741135  0.36344207  0.55683281    -0.55400
C296        C  0.36785351  0.40336885  0.56308227     0.08700
H297        H  0.28873918  0.35343492  0.63513789     0.13200
H298        H  0.33888419  0.46491696  0.58248217    -0.01100
H299        H  0.26257735  0.38393349  0.50439018     0.13500
H300        H  0.37880702  0.33928221  0.54499058     0.13300
C301        C  0.41765402  0.11519048  0.56437873     0.85100
C302        C  0.44973935  0.14226317  0.54555423    -0.55200
C303        C  0.44432573  0.18303573  0.55350872     0.08000
C304        C  0.40762920  0.19392669  0.58280122     0.18900
C305        C  0.42128496  0.12278158  0.61532506    -0.55900
C306        C  0.41737413  0.16436408  0.62576320     0.08100
C307        C  0.37445747  0.13718649  0.54630020    -0.55400
C308        C  0.36898772  0.17830627  0.55578611     0.08700
H309        H  0.47358634  0.13044484  0.52420414     0.13200
H310        H  0.40362371  0.22726058  0.59034048    -0.01100
H311        H  0.43143018  0.09791505  0.64044943     0.13500
H312        H  0.35008839  0.12127677  0.52844360     0.13300
C313        C  0.10260869  0.06601827  0.92597457     0.85100
C314        C  0.11107927  0.05645132  0.87706125    -0.55200
C315        C  0.15095181  0.06272027  0.86609033     0.08000
C316        C  0.17804466  0.07999939  0.90502320     0.18900
C317        C  0.13777679  0.04099081  0.95548716    -0.55900
C318        C  0.17697789  0.04822169  0.94469191     0.08100
C319        C  0.11269318  0.11144261  0.93110222    -0.55400
C320        C  0.15235995  0.11872118  0.92013373     0.08700
H321        H  0.08834218  0.04269271  0.85440866     0.13200
H322        H  0.21038536  0.08553346  0.89677317    -0.01100
H323        H  0.13216477  0.01851833  0.98219743     0.13500
H324        H  0.09155563  0.13503071  0.94433429     0.13300
C325        C  0.05598369  0.37168324  0.69196904     0.85100
C326        C  0.03640251  0.37973247  0.64423710    -0.55200
C327        C  0.04261522  0.41680637  0.62454561     0.08000
C328        C  0.07239921  0.44164036  0.65306072     0.18900
C329        C  0.10365398  0.37437602  0.68846678    -0.55900
C330        C  0.11253009  0.41244459  0.66961896     0.08100
C331        C  0.04330040  0.41050572  0.71752203    -0.55400
C332        C  0.05111220  0.44675241  0.69653291     0.08700
H333        H  0.01496555  0.35887421  0.62885976     0.13200
H334        H  0.07817875  0.47148984  0.63571262    -0.01100
H335        H  0.12729095  0.35278165  0.70684104     0.13500
H336        H  0.02631728  0.40967382  0.74793358     0.13300
O337        O  0.03853777  0.39952755  0.98485724    -0.82300
O338        O  0.44018502  0.03799349  0.56886633    -0.67000
O339        O  0.46963863  0.45128178  0.98487855    -1.13600
C340        C  0.06074366  0.05343107  0.93945567     1.04600
O341        O  0.42851174  0.07169018  0.50381467    -0.80200
O342        O  0.45599875  0.06893063  0.92431037    -0.67800
Ni343      Ni  0.48311490  0.39584873  0.50176836     1.34900
C344        C  0.45087928  0.03770652  0.90142383     0.83300
O345        O  0.41558023  0.45612039  0.55404596    -0.80800
O346        O  0.42855128  0.39351902  0.52331946    -0.91000
C347        C  0.42702578  0.07190633  0.54621439     0.82900
O348        O  0.00554206  0.40091926  0.56010424    -0.69200
O349        O  0.03591892  0.08026944  0.95707557    -0.88500
C350        C  0.01564002  0.43049431  0.58347949     0.83700
C351        C  0.40668551  0.41863227  0.54644409     1.05300
H352        H  0.02154331  0.02221593  0.52344776     0.37100
O353        O  0.99730419  0.02142017  0.00147663    -1.11200
O354        O  0.47063884  0.00217697  0.91053898    -0.67800
Ni355      Ni  0.01237634  0.47972634  0.95792298     1.26300
O356        O  0.50093288  0.46797823  0.57447514    -0.68100
O357        O  0.05402003  0.51305216  0.93431939    -0.80400
C358        C  0.04243529  0.39930198  0.94301049     0.83100
O359        O  0.02942990  0.43295386  0.91992970    -0.67500
Ni360      Ni  0.98207616  0.07660782  0.98153036     1.27400
Ni361      Ni  0.45649335  0.49034628  0.52875470     1.26100
H362        H  0.44533234  0.45203523  0.96329042     0.37600
O363        O  0.32094963  0.50035356  0.79443714    -0.82300
O364        O  0.18549292  0.41623155  0.70115988    -0.67000
O365        O  0.26686488  0.49557999  0.72380010    -1.13600
C366        C  0.16774904  0.04573729  0.82458217     1.04600
O367        O  0.14504185  0.47291769  0.68586343    -0.80200
O368        O  0.15079093  0.04843984  0.71002900    -0.67800
Ni369      Ni  0.32376146  0.47867359  0.73623504     1.34900
C370        C  0.17935958  0.07266424  0.70691917     0.83300
O371        O  0.26285451  0.42705502  0.66987716    -0.80800
O372        O  0.32548955  0.45501252  0.67784606    -0.91000
C373        C  0.15011104  0.43389976  0.68544252     0.82900
O374        O  0.32022550  0.42624802  0.76480571    -0.69200
O375        O  0.14173151  0.02797126  0.79828571    -0.88500
C376        C  0.29108283  0.40482707  0.77595650     0.83700
C377        C  0.29968413  0.43250096  0.65743626     1.05300
H378        H  0.20046463  0.46534745  0.78518340     0.37100
O379        O  0.19986868  0.48312624  0.75806527    -1.11200
O380        O  0.21569693  0.06586307  0.72756084    -0.67800
Ni381      Ni  0.23963247  0.02286147  0.77177618     1.26300
O382        O  0.25299686  0.41412688  0.76159210    -0.68100
O383        O  0.20686611  0.04761806  0.81798512    -0.80400
C384        C  0.32089711  0.03847054  0.79588323     0.83100
O385        O  0.28547785  0.05881572  0.78538782    -0.67500
Ni386      Ni  0.14401927  0.99935503  0.74288854     1.27400
Ni387      Ni  0.22919330  0.45388983  0.71355843     1.26100
H388        H  0.26531192  0.01331556  0.69790081     0.37600
O389        O  0.23070478  0.19138903  0.59666971    -0.82300
O390        O  0.29914247  0.26989528  0.93008930    -0.67000
O391        O  0.23344767  0.25241348  0.52956448    -1.13600
C392        C  0.17190286  0.15747967  0.93018995     1.04600
O393        O  0.23902768  0.28065812  0.88758520    -0.80200
O394        O  0.16164291  0.25690177  0.90358754    -0.67800
Ni395      Ni  0.25657971  0.24288221  0.58998774     1.34900
C396        C  0.14338683  0.26731776  0.93840582     0.83300
O397        O  0.29740314  0.30293096  0.51237888    -0.80800
O398        O  0.28223295  0.29446174  0.58540751    -0.91000
C399        C  0.27834119  0.28437832  0.89342821     0.82900
O400        O  0.30868939  0.21280031  0.58098891    -0.69200
O401        O  0.19000625  0.17540520  0.89859319    -0.88500
C402        C  0.32825238  0.20445479  0.54651640     0.83700
C403        C  0.29700923  0.31489264  0.55310537     1.05300
H404        H  0.25643466  0.19315008  0.95560537     0.37100
O405        O  0.23801105  0.21830565  0.95516667    -1.11200
O406        O  0.15764782  0.25483838  0.97870699    -0.67800
Ni407      Ni  0.20169353  0.21140355  0.50185403     1.26300
O408        O  0.31488466  0.21827166  0.50617005    -0.68100
O409        O  0.17114577  0.17018822  0.97063112    -0.80400
C410        C  0.19105801  0.18989814  0.59169336     0.83100
O411        O  0.17068894  0.20313271  0.55440218    -0.67500
Ni412      Ni  0.21467664  0.22790442  0.89449842     1.27400
Ni413      Ni  0.26903781  0.25996576  0.98289778     1.26100
H414        H  0.21519689  0.27764849  0.52960913     0.37600
O415        O  0.42339404  0.30145261  0.79835846    -0.82300
O416        O  0.07747995  0.21839638  0.73453153    -0.67000
O417        O  0.47020138  0.27313537  0.73084761    -1.13600
C418        C  0.43606260  0.14099176  0.78431290     1.04600
O419        O  0.04687496  0.17340725  0.69139247    -0.80200
O420        O  0.46852699  0.15173826  0.68553415    -0.67800
Ni421      Ni  0.45862869  0.32394298  0.75614691     1.34900
C422        C  0.43834982  0.17689759  0.66985623     0.83300
O423        O  0.05119892  0.29915979  0.71731677    -0.80800
O424        O  0.49551042  0.34633164  0.71677797    -0.91000
C425        C  0.07922573  0.19093577  0.70482687     0.82900
O426        O  0.50170309  0.32289176  0.80299875    -0.69200
O427        O  0.47269556  0.12886531  0.77265075    -0.88500
C428        C  0.03087246  0.29683180  0.81921635     0.83700
C429        C  0.03409328  0.33628475  0.71108673     1.05300
H430        H  0.00735494  0.19784064  0.78960142     0.37100
O431        O  0.99916255  0.20216116  0.75754366    -1.11200
O432        O  0.42769803  0.21024589  0.68999339    -0.67800
Ni433      Ni  0.44393001  0.22639783  0.75291865     1.26300
O434        O  0.04051458  0.26308220  0.79980118    -0.68100
O435        O  0.41930599  0.17801590  0.77668375    -0.80400
C436        C  0.39063214  0.28536371  0.78396612     0.83100
O437        O  0.39226800  0.25741563  0.75486198    -0.67500
Ni438      Ni  0.01071804  0.15105242  0.73328163     1.27400
Ni439      Ni  0.02570614  0.24925359  0.73654598     1.26100
H440        H  0.46194707  0.27719037  0.69872894     0.37600
C441        C  0.26767855  0.46456039  0.96429054    -0.14800
C442        C  0.27513294  0.46605838  0.51211796     0.07400
C443        C  0.25100747  0.99544373  0.53714829    -0.14800
C444        C  0.22049412  0.02418066  0.01514086    -0.14800
C445        C  0.21384354  0.02439742  0.96770651     0.07400
C446        C  0.23863992  0.49370398  0.94079831    -0.14800
H447        H  0.28273147  0.44001665  0.94596555     0.11400
H448        H  0.25476745  0.99456301  0.57389479     0.11400
H449        H  0.20335257  0.04609758  0.53331483     0.11400
H450        H  0.23134949  0.49125775  0.90467645     0.11400
C451        C  0.96293171  0.26615072  0.96713403    -0.14800
C452        C  0.00579432  0.25715120  0.96106487     0.07400
C453        C  0.52885206  0.22509928  0.98781476    -0.14800
C454        C  0.50975144  0.20345490  0.52135585    -0.14800
C455        C  0.46670803  0.21225073  0.52672277     0.07400
C456        C  0.44371954  0.24427262  0.00026997    -0.14800
H457        H  0.94470985  0.29106633  0.94711143     0.11400
H458        H  0.56209888  0.21837600  0.98459878     0.11400
H459        H  0.52800155  0.17904565  0.54212622     0.11400
H460        H  0.41050812  0.25113435  0.00354760     0.11400
C461        C  0.50850189  0.51526739  0.77787101    -0.14800
C462        C  0.46910246  0.02665327  0.75560277     0.07400
C463        C  0.46358876  0.02318557  0.70861149    -0.14800
C464        C  0.99539233  0.00344059  0.68627783    -0.14800
C465        C  0.03132499  0.48536714  0.71040692     0.07400
C466        C  0.53986897  0.49523773  0.75536200    -0.14800
H467        H  0.51432604  0.51837404  0.81401970     0.11400
H468        H  0.43399365  0.03341785  0.68978615     0.11400
H469        H  0.98893576  0.99649879  0.65120222     0.11400
H470        H  0.06846905  0.48266213  0.77464171     0.11400
C471        C  0.22308734  0.24004730  0.69640062    -0.14800
C472        C  0.22555829  0.20259386  0.72256203     0.07400
C473        C  0.23921609  0.20144830  0.76851959    -0.14800
C474        C  0.24804049  0.23776093  0.78877332    -0.14800
C475        C  0.24514037  0.27538775  0.76282153     0.07400
C476        C  0.23182902  0.27643133  0.71670101    -0.14800
H477        H  0.21045539  0.24202322  0.66138090     0.11400
H478        H  0.23968974  0.17306138  0.78937386     0.11400
H479        H  0.26116032  0.23545943  0.82354790     0.11400
H480        H  0.23148294  0.30479288  0.69583144     0.11400
C481        C  0.34878250  0.80143021  0.29761829     0.85100
C482        C  0.34368436  0.84817299  0.29800465    -0.55200
C483        C  0.30376747  0.86420491  0.30388455     0.08000
C484        C  0.27433806  0.82998501  0.31566265     0.18900
C485        C  0.33762432  0.78648026  0.34459487    -0.55900
C486        C  0.29839654  0.80121223  0.35454699     0.08100
C487        C  0.31395602  0.79049776  0.26386555    -0.55400
C488        C  0.27499967  0.80355642  0.27406225     0.08700
H489        H  0.36796927  0.86659602  0.28634660     0.13200
H490        H  0.24233959  0.84224975  0.32291539    -0.01100
H491        H  0.35758392  0.76390990  0.36635859     0.13500
H492        H  0.31887201  0.76898193  0.23707160     0.13300
C493        C  0.36378331  0.55560665  0.30416194     0.85100
C494        C  0.38327849  0.54007512  0.35192852    -0.55200
C495        C  0.42462573  0.54611445  0.35905464     0.08000
C496        C  0.44230737  0.56855501  0.32052787     0.16900
C497        C  0.37219653  0.60229787  0.29948150    -0.55900
C498        C  0.41448614  0.60842051  0.30724720     0.08100
C499        C  0.39368476  0.53518698  0.27122558    -0.55400
C500        C  0.43474986  0.54213717  0.28046060     0.08700
H501        H  0.36609697  0.52514559  0.37731780     0.13200
H502        H  0.47563865  0.57409772  0.32925704    -0.01100
H503        H  0.34896315  0.62614409  0.28439296     0.13500
H504        H  0.38331704  0.51645532  0.24357837     0.13300
C505        C  0.05346267  0.85748414  0.42628274     0.85100
C506        C  0.09746926  0.83540174  0.44169549    -0.55200
C507        C  0.10279548  0.79466068  0.42996065     0.08000
C508        C  0.06323515  0.77954742  0.40450215     0.18900
C509        C  0.04763245  0.85146222  0.37518228    -0.55900
C510        C  0.05144892  0.81039089  0.36335858     0.08100
C511        C  0.02277960  0.82917901  0.44598575    -0.55400
C512        C  0.02790934  0.78890069  0.43585971     0.08700
H513        H  0.12217096  0.85078462  0.45964631     0.13200
H514        H  0.06698436  0.74659341  0.39540508    -0.01100
H515        H  0.03639091  0.87694109  0.35114379     0.13500
H516        H  0.99961587  0.83980540  0.46869000     0.13300
C517        C  0.11940979  0.67611987  0.18849234     0.85100
C518        C  0.15526618  0.68858757  0.21985743    -0.55200
C519        C  0.19371441  0.67478077  0.20858987     0.08000
C520        C  0.19324866  0.64685119  0.16846892     0.18900
C521        C  0.12924394  0.68954789  0.14011856    -0.55900
C522        C  0.16837190  0.67419669  0.12963566     0.08100
C523        C  0.12505788  0.62927865  0.19006301    -0.55400
C524        C  0.16435556  0.61334229  0.18187536     0.08700
H525        H  0.15133266  0.71143569  0.24550154     0.13200
H526        H  0.22499698  0.63417153  0.16079148    -0.01100
H527        H  0.10885991  0.71147422  0.11801850     0.13500
H528        H  0.10179739  0.61070769  0.20379265     0.13300
C529        C  0.31093309  0.85678252  0.06320460     0.85100
C530        C  0.30395030  0.87071086  0.11121552    -0.55200
C531        C  0.31310735  0.91031253  0.11848708     0.08000
C532        C  0.32945566  0.93266031  0.07716675     0.18900
C533        C  0.28523068  0.88980308  0.03170787    -0.55900
C534        C  0.29489602  0.92929544  0.03893519     0.08100
C535        C  0.35674281  0.86405910  0.05627384    -0.55400
C536        C  0.36651527  0.90423170  0.06253993     0.08700
H537        H  0.29046087  0.85192002  0.13666693     0.13200
H538        H  0.33669071  0.96509856  0.08288030    -0.01100
H539        H  0.26063131  0.88267838  0.00655069     0.13500
H540        H  0.37838355  0.84033896  0.04403505     0.13300
C541        C  0.41806135  0.61371662  0.06442567     0.85100
C542        C  0.44919314  0.64111397  0.04434992    -0.55200
C543        C  0.44372997  0.68189409  0.05225900     0.08000
C544        C  0.40789977  0.69255901  0.08280962     0.18900
C545        C  0.42316171  0.62152003  0.11536480    -0.55900
C546        C  0.41901562  0.66312330  0.12579230     0.08100
C547        C  0.37431453  0.63540116  0.04757456    -0.55400
C548        C  0.36878768  0.67662751  0.05688520     0.08700
H549        H  0.47250932  0.62941340  0.02233567     0.13200
H550        H  0.40393859  0.72590612  0.09027839    -0.01100
H551        H  0.43389276  0.59673876  0.14039567     0.13500
H552        H  0.34981254  0.61932072  0.03019445     0.13300
C553        C  0.10395400  0.56377794  0.42615307     0.85100
C554        C  0.11162671  0.55610416  0.37664947    -0.55200
C555        C  0.15111744  0.56336065  0.36522537     0.08000
C556        C  0.17861535  0.57969671  0.40441248     0.18900
C557        C  0.13985494  0.53816819  0.45413933    -0.55900
C558        C  0.17870196  0.54661978  0.44293764     0.08100
C559        C  0.11362853  0.60909606  0.43296661    -0.55400
C560        C  0.15281777  0.61736001  0.42154788     0.08700
H561        H  0.08874734  0.54268143  0.35386281     0.13200
H562        H  0.21062936  0.58609755  0.39576673    -0.01100
H563        H  0.13502249  0.51494570  0.48038526     0.13500
H564        H  0.09240596  0.63202178  0.44712779     0.13300
C565        C  0.05529472  0.87260643  0.19274267     0.85100
C566        C  0.03556377  0.88079807  0.14511509    -0.55200
C567        C  0.04181075  0.91786817  0.12543318     0.08000
C568        C  0.07200070  0.94245502  0.15389377     0.18900
C569        C  0.10297781  0.87501428  0.18908581    -0.55900
C570        C  0.11205535  0.91300470  0.17023718     0.08100
C571        C  0.04297134  0.91133649  0.21844323    -0.55400
C572        C  0.05098590  0.94754958  0.19754044     0.08700
H573        H  0.01395788  0.86003429  0.12986719     0.13200
H574        H  0.07791255  0.97230132  0.13663686    -0.01100
H575        H  0.12654281  0.85324234  0.20731170     0.13500
H576        H  0.02612668  0.91048492  0.24896027     0.13300
O577        O  0.03883424  0.90077988  0.48645188    -0.82300
O578        O  0.44081621  0.53638819  0.06860756    -0.67000
O579        O  0.46981988  0.95306130  0.48541510    -1.13600
C580        C  0.06211769  0.55100361  0.43944444     1.04600
O581        O  0.42908904  0.57016618  0.00363549    -0.80200
O582        O  0.45759957  0.56795202  0.42363023    -0.67800
Ni583      Ni  0.48223076  0.89739933  0.00262382     1.34900
C584        C  0.45140869  0.53688607  0.40081223     0.83300
O585        O  0.41477184  0.95718077  0.05495479    -0.80800
O586        O  0.42711206  0.89529364  0.02262369    -0.91000
C587        C  0.42754412  0.57034891  0.04606830     0.82900
O588        O  0.00314990  0.90225838  0.06167956    -0.69200
O589        O  0.03757148  0.57777459  0.45749837    -0.88500
C590        C  0.01444231  0.93175817  0.08457166     0.83700
C591        C  0.40539737  0.91999235  0.04630247     1.05300
H592        H  0.02214034  0.51974070  0.02263141     0.37100
O593        O  0.99813963  0.51948857  0.50053961    -1.11200
O594        O  0.47058115  0.50103616  0.40970580    -0.67800
Ni595      Ni  0.01277736  0.98143259  0.45909795     1.26300
O596        O  0.50057495  0.96943216  0.07518064    -0.68100
O597        O  0.05418702  0.01487902  0.43570335    -0.80400
C598        C  0.04320007  0.90067303  0.44464465     0.83100
O599        O  0.03056190  0.93447979  0.42164477    -0.67500
Ni600      Ni  0.98342593  0.57478388  0.48116889     1.27400
Ni601      Ni  0.45578406  0.99174040  0.02973329     1.26100
H602        H  0.44568000  0.95390752  0.46359365     0.37600
O603        O  0.32111041  0.99977456  0.29624978    -0.82300
O604        O  0.18530015  0.91608673  0.20139322    -0.67000
O605        O  0.26744840  0.99457203  0.22538264    -1.13600
C606        C  0.16756213  0.54715179  0.32327174     1.04600
O607        O  0.14532967  0.97306079  0.18655965    -0.80200
O608        O  0.14992120  0.54885988  0.20872610    -0.67800
Ni609      Ni  0.32421751  0.97731710  0.23841939     1.34900
C610        C  0.17835384  0.57317839  0.20530859     0.83300
O611        O  0.26279282  0.92674242  0.17052421    -0.80800
O612        O  0.32629041  0.95282295  0.18032882    -0.91000
C613        C  0.14999985  0.93407039  0.18585804     0.82900
O614        O  0.31982209  0.92553783  0.26780505    -0.69200
O615        O  0.14148586  0.52925528  0.29718145    -0.88500
C616        C  0.29052136  0.90376729  0.27753332     0.83700
C617        C  0.30003696  0.93136459  0.15893593     1.05300
H618        H  0.20068339  0.96439361  0.28618505     0.37100
O619        O  0.20015022  0.98231565  0.25918518    -1.11200
O620        O  0.21489523  0.56659462  0.22566425    -0.67800
Ni621      Ni  0.23928015  0.52414583  0.27046786     1.26300
O622        O  0.25272028  0.91276658  0.26190143    -0.68100
O623        O  0.20656543  0.54937746  0.31636567    -0.80400
C624        C  0.32072902  0.53947125  0.29495005     0.83100
O625        O  0.28547466  0.56004468  0.28370039    -0.67500
Ni626      Ni  0.14361616  0.50002270  0.24223655     1.27400
Ni627      Ni  0.22935133  0.95329470  0.21444428     1.26100
H628        H  0.26488869  0.51367797  0.19682615     0.37600
O629        O  0.22949608  0.69110569  0.09584955    -0.82300
O630        O  0.29876916  0.76847963  0.42953329    -0.67000
O631        O  0.23336951  0.75211094  0.02960818    -1.13600
C632        C  0.17158458  0.65653742  0.43122677     1.04600
O633        O  0.23833525  0.77914332  0.38752242    -0.80200
O634        O  0.16087967  0.75595160  0.40336809    -0.67800
Ni635      Ni  0.25625527  0.74215182  0.09001714     1.34900
C636        C  0.14305435  0.76737327  0.43812826     0.83300
O637        O  0.29761920  0.80221949  0.01282514    -0.80800
O638        O  0.28269040  0.79340812  0.08595481    -0.91000
C639        C  0.27769720  0.78253892  0.39284579     0.82900
O640        O  0.30816368  0.71134248  0.08155094    -0.69200
O641        O  0.18955922  0.67419985  0.39942583    -0.88500
C642        C  0.32804255  0.70303494  0.04728546     0.83700
C643        C  0.29732141  0.81404942  0.05368512     1.05300
H644        H  0.25585222  0.69220884  0.45614574     0.37100
O645        O  0.23758975  0.71750417  0.45541526    -1.11200
O646        O  0.15749895  0.75520524  0.47846745    -0.67800
Ni647      Ni  0.20113031  0.71142437  0.00181667     1.26300
O648        O  0.31503893  0.71724316  0.00689956    -0.68100
O649        O  0.17044239  0.66990486  0.47136990    -0.80400
C650        C  0.18975003  0.69033914  0.09085496     0.83100
O651        O  0.16955695  0.70407969  0.05377106    -0.67500
Ni652      Ni  0.21401655  0.72662236  0.39476500     1.27400
Ni653      Ni  0.26892484  0.75927484  0.48265547     1.26100
H654        H  0.21540414  0.77753692  0.02963245     0.37600
O655        O  0.42223965  0.80108435  0.29808813    -0.82300
O656        O  0.07735619  0.71952373  0.23470401    -0.67000
O657        O  0.46972891  0.77391058  0.23107137    -1.13600
C658        C  0.43683447  0.64138867  0.28522873     1.04600
O659        O  0.04620444  0.67454594  0.19200646    -0.80200
O660        O  0.46837797  0.65064177  0.18769653    -0.67800
Ni661      Ni  0.45753765  0.82448630  0.25659800     1.34900
C662        C  0.43912182  0.67613081  0.17036031     0.83300
O663        O  0.05047292  0.80021908  0.21762911    -0.80800
O664        O  0.49474167  0.84751652  0.21798086    -0.91000
C665        C  0.07872619  0.69201912  0.20492299     0.82900
O666        O  0.50006873  0.82401837  0.30398704    -0.69200
O667        O  0.47424162  0.62991690  0.27546261    -0.88500
C668        C  0.02999398  0.79851765  0.31980631     0.83700
C669        C  0.03334996  0.83733834  0.21186938     1.05300
H670        H  0.00702037  0.69935318  0.29050272     0.37100
O671        O  0.99912009  0.70320608  0.25834313    -1.11200
O672        O  0.42883003  0.71026828  0.18931521    -0.67800
Ni673      Ni  0.44367472  0.72674215  0.25259986     1.26300
O674        O  0.04014776  0.76491730  0.30021731    -0.68100
O675        O  0.41930948  0.67792639  0.27587089    -0.80400
C676        C  0.38970374  0.78486210  0.28321861     0.83100
O677        O  0.39167145  0.75719673  0.25380797    -0.67500
Ni678      Ni  0.01120353  0.65194859  0.23486561     1.27400
Ni679      Ni  0.02540296  0.75033344  0.23707906     1.26100
H680        H  0.46161920  0.77809420  0.19893652     0.37600
C681        C  0.26661649  0.96638190  0.46545851    -0.14800
C682        C  0.27134854  0.96502693  0.01416721     0.07400
C683        C  0.25528758  0.49729972  0.03488508    -0.14800
C684        C  0.22454973  0.52545228  0.51258547    -0.14800
C685        C  0.21653538  0.52408067  0.46543429     0.07400
C686        C  0.23817990  0.99631009  0.44232975    -0.14800
H687        H  0.28282611  0.94302902  0.44652205     0.11400
H688        H  0.26028760  0.49805592  0.07146770     0.11400
H689        H  0.20812199  0.54846633  0.03027911     0.11400
H690        H  0.23233605  0.99553141  0.40582214     0.11400
C691        C  0.96218821  0.76811603  0.46699261    -0.14800
C692        C  0.00478375  0.75847484  0.45995956     0.07400
C693        C  0.52727562  0.72506341  0.48471638    -0.14800
C694        C  0.50839436  0.70141074  0.01775732    -0.14800
C695        C  0.46596787  0.71125937  0.02538800     0.07400
C696        C  0.44254083  0.74497043  0.49856990    -0.14800
H697        H  0.94439422  0.79425522  0.44859197     0.11400
H698        H  0.56037949  0.71793874  0.48099565     0.11400
H699        H  0.52648172  0.67563618  0.03647987     0.11400
H700        H  0.40948023  0.75216764  0.50246175     0.11400
C701        C  0.50743868  0.01383960  0.27967258    -0.14800
C702        C  0.46935399  0.52653166  0.25494270     0.07400
C703        C  0.46327282  0.52201541  0.20814707    -0.14800
C704        C  0.99469796  0.50151480  0.18581091    -0.14800
C705        C  0.03163628  0.98613684  0.21182228     0.07400
C706        C  0.53929375  0.99471932  0.25726086    -0.14800
H707        H  0.51247543  0.01586026  0.31607539     0.11400
H708        H  0.43348402  0.53186836  0.18952965     0.11400
H709        H  0.98775871  0.49379491  0.15105566     0.11400
H710        H  0.06748245  0.98131904  0.27693749     0.11400
C711        C  0.22365275  0.73941166  0.19392943    -0.14800
C712        C  0.22550186  0.70216793  0.22040242     0.07400
C713        C  0.23872173  0.70125576  0.26642615    -0.14800
C714        C  0.24685632  0.73771832  0.28664381    -0.14800
C715        C  0.24457876  0.77514741  0.26047753     0.07400
C716        C  0.23233387  0.77588008  0.21407783    -0.14800
H717        H  0.21133382  0.74132712  0.15884006     0.11400
H718        H  0.23880207  0.67302097  0.28745305     0.11400
H719        H  0.25903745  0.73562286  0.32170922     0.11400
H720        H  0.23250371  0.80408568  0.19305513     0.11400
C721        C  0.34902611  0.80150672  0.79764703     0.85100
C722        C  0.34410889  0.84826595  0.79719739    -0.55200
C723        C  0.30431051  0.86455072  0.80303806     0.08000
C724        C  0.27475729  0.83056465  0.81562429     0.18900
C725        C  0.33802706  0.78724423  0.84492335    -0.55900
C726        C  0.29881072  0.80207177  0.85482251     0.08100
C727        C  0.31405247  0.79016146  0.76432486    -0.55400
C728        C  0.27519101  0.80352266  0.77450252     0.08700
H729        H  0.36841904  0.86642226  0.78510600     0.13200
H730        H  0.24282345  0.84305682  0.82283230    -0.01100
H731        H  0.35795101  0.76473031  0.86679689     0.13500
H732        H  0.31877290  0.76821392  0.73790177     0.13300
C733        C  0.36333862  0.55541951  0.80441454     0.85100
C734        C  0.38282761  0.54019555  0.85229263    -0.55200
C735        C  0.42415202  0.54640236  0.85946139     0.08000
C736        C  0.44183759  0.56857995  0.82068549     0.16900
C737        C  0.37167662  0.60212031  0.79934893    -0.55900
C738        C  0.41395154  0.60835934  0.80704072     0.08100
C739        C  0.39329476  0.53483483  0.77166327    -0.55400
C740        C  0.43433485  0.54188172  0.78078146     0.08700
H741        H  0.36566229  0.52529923  0.87771841     0.13200
H742        H  0.47514205  0.57422097  0.82936551    -0.01100
H743        H  0.34840636  0.62584481  0.78407389     0.13500
H744        H  0.38295175  0.51597181  0.74412662     0.13300
C745        C  0.05339193  0.85711787  0.92677116     0.85100
C746        C  0.09755746  0.83518086  0.94189809    -0.55200
C747        C  0.10300057  0.79442307  0.93013499     0.08000
C748        C  0.06331813  0.77911055  0.90509074     0.18900
C749        C  0.04730008  0.85097745  0.87573546    -0.55900
C750        C  0.05118015  0.80990535  0.86393486     0.08100
C751        C  0.02299065  0.82868626  0.94682559    -0.55400
C752        C  0.02822714  0.78837330  0.93681939     0.08700
H753        H  0.12228114  0.85067955  0.95965309     0.13200
H754        H  0.06709998  0.74614622  0.89603890    -0.01100
H755        H  0.03595973  0.87642837  0.85170221     0.13500
H756        H  0.99995566  0.83926564  0.96970330     0.13300
C757        C  0.11911403  0.67597714  0.68893584     0.85100
C758        C  0.15485201  0.68826255  0.72060684    -0.55200
C759        C  0.19335791  0.67461800  0.70941982     0.08000
C760        C  0.19302659  0.64684651  0.66910998     0.18900
C761        C  0.12911285  0.68959620  0.64068444    -0.55900
C762        C  0.16825802  0.67430478  0.63024603     0.08100
C763        C  0.12471036  0.62915311  0.69029494    -0.55400
C764        C  0.16405611  0.61325364  0.68224485     0.08700
H765        H  0.15081014  0.71095102  0.74640189     0.13200
H766        H  0.22480987  0.63420884  0.66151094    -0.01100
H767        H  0.10875532  0.71154602  0.61858722     0.13500
H768        H  0.10136889  0.61055268  0.70381450     0.13300
C769        C  0.31096508  0.85697665  0.56265642     0.85100
C770        C  0.30365981  0.87122359  0.61046401    -0.55200
C771        C  0.31293845  0.91080581  0.61755670     0.08000
C772        C  0.32978576  0.93280460  0.57638139     0.18900
C773        C  0.28568022  0.88997801  0.53076457    -0.55900
C774        C  0.29554186  0.92943741  0.53787551     0.08100
C775        C  0.35694771  0.86396682  0.55611780    -0.55400
C776        C  0.36684343  0.90412939  0.56229692     0.08700
H777        H  0.28992317  0.85264845  0.63591150     0.13200
H778        H  0.33713580  0.96522602  0.58201370    -0.01100
H779        H  0.26116726  0.88288324  0.50549425     0.13500
H780        H  0.37859654  0.84011112  0.54413786     0.13300
C781        C  0.41795370  0.61432594  0.56345226     0.85100
C782        C  0.44863704  0.64195070  0.54293174    -0.55200
C783        C  0.44310729  0.68269657  0.55097152     0.08000
C784        C  0.40764748  0.69314683  0.58207774     0.18900
C785        C  0.42356415  0.62208752  0.61437323    -0.55900
C786        C  0.41930917  0.66364965  0.62495383     0.08100
C787        C  0.37399576  0.63582595  0.54715171    -0.55400
C788        C  0.36838975  0.67702056  0.55663276     0.08700
H789        H  0.47176384  0.63040754  0.52061060     0.13200
H790        H  0.40364520  0.72648082  0.58960137    -0.01100
H791        H  0.43446290  0.59724876  0.63929219     0.13500
H792        H  0.34944815  0.61967938  0.52994900     0.13300
C793        C  0.10369476  0.56379594  0.92633380     0.85100
C794        C  0.11110480  0.55620180  0.87670811    -0.55200
C795        C  0.15063127  0.56315981  0.86513454     0.08000
C796        C  0.17839440  0.57931914  0.90423057     0.18900
C797        C  0.13959523  0.53790058  0.95403170    -0.55900
C798        C  0.17843823  0.54612319  0.94261425     0.08100
C799        C  0.11375903  0.60903067  0.93325682    -0.55400
C800        C  0.15296515  0.61713564  0.92161168     0.08700
H801        H  0.08809109  0.54287098  0.85400702     0.13200
H802        H  0.21042094  0.58551320  0.89544356    -0.01100
H803        H  0.13476408  0.51462837  0.98022492     0.13500
H804        H  0.09273664  0.63202354  0.94759268     0.13300
C805        C  0.05516493  0.87270865  0.69293216     0.85100
C806        C  0.03567005  0.88065120  0.64516851    -0.55200
C807        C  0.04212430  0.91759599  0.62530167     0.08000
C808        C  0.07226122  0.94226926  0.65368675     0.18900
C809        C  0.10292998  0.87501000  0.68953460    -0.55900
C810        C  0.11219640  0.91284220  0.67043544     0.08100
C811        C  0.04272421  0.91169316  0.71820907    -0.55400
C812        C  0.05102694  0.94774019  0.69711906     0.08700
H813        H  0.01399550  0.85992055  0.62998471     0.13200
H814        H  0.07832118  0.97198087  0.63623852    -0.01100
H815        H  0.12638104  0.85330406  0.70803358     0.13500
H816        H  0.02576739  0.91112550  0.74865060     0.13300
O817        O  0.03853241  0.90069757  0.98672357    -0.82300
O818        O  0.44084823  0.53697855  0.56768733    -0.67000
O819        O  0.46954222  0.95308256  0.98539289    -1.13600
C820        C  0.06180404  0.55110060  0.93984630     1.04600
O821        O  0.42919276  0.57069381  0.50270374    -0.80200
O822        O  0.45735440  0.56813105  0.92422652    -0.67800
Ni823      Ni  0.48262330  0.89735333  0.50246120     1.34900
C824        C  0.45097914  0.53713497  0.90131370     0.83300
O825        O  0.41500579  0.95707785  0.55481353    -0.80800
O826        O  0.42760202  0.89511177  0.52267838    -0.91000
C827        C  0.42756070  0.57092507  0.54511029     0.82900
O828        O  0.00372285  0.90201845  0.56142843    -0.69200
O829        O  0.03739798  0.57781357  0.95818681    -0.88500
C830        C  0.01478534  0.93149946  0.58446479     0.83700
C831        C  0.40577726  0.91983302  0.54622193     1.05300
H832        H  0.02226781  0.52005848  0.52212357     0.37100
O833        O  0.99793532  0.51926650  0.00113642    -1.11200
O834        O  0.46993041  0.50118695  0.91027583    -0.67800
Ni835      Ni  0.01250456  0.98146096  0.95891565     1.26300
O836        O  0.50070043  0.96921224  0.57530118    -0.68100
O837        O  0.05379877  0.01500627  0.93523447    -0.80400
C838        C  0.04298478  0.90044421  0.94493022     0.83100
O839        O  0.03034703  0.93421187  0.92176111    -0.67500
Ni840      Ni  0.98324428  0.57461744  0.98193666     1.27400
Ni841      Ni  0.45603589  0.99166567  0.52981224     1.26100
H842        H  0.44540106  0.95392138  0.96357632     0.37600
O843        O  0.32178323  0.99962952  0.79517654    -0.82300
O844        O  0.18559900  0.91613196  0.70123056    -0.67000
O845        O  0.26751202  0.99499200  0.72476182    -1.13600
C846        C  0.16703897  0.54655942  0.82330342     1.04600
O847        O  0.14543729  0.97299119  0.68648687    -0.80200
O848        O  0.14949246  0.54874598  0.70907156    -0.67800
Ni849      Ni  0.32441744  0.97779277  0.73704740     1.34900
C850        C  0.17796626  0.57302448  0.70561278     0.83300
O851        O  0.26292643  0.92708860  0.66995140    -0.80800
O852        O  0.32604924  0.95402283  0.67864784    -0.91000
C853        C  0.15016907  0.93399111  0.68591453     0.82900
O854        O  0.32046123  0.92551591  0.76582323    -0.69200
O855        O  0.14101303  0.52845724  0.79733192    -0.88500
C856        C  0.29115306  0.90402931  0.77638448     0.83700
C857        C  0.29992377  0.93208679  0.65782738     1.05300
H858        H  0.20091538  0.96440753  0.78583520     0.37100
O859        O  0.20042858  0.98244330  0.75889335    -1.11200
O860        O  0.21455275  0.56630804  0.72580927    -0.67800
Ni861      Ni  0.23891705  0.52376230  0.77046551     1.26300
O862        O  0.25321253  0.91330155  0.76148724    -0.68100
O863        O  0.20603892  0.54880379  0.81636343    -0.80400
C864        C  0.32031673  0.53916709  0.79514920     0.83100
O865        O  0.28501894  0.55969248  0.78398267    -0.67500
Ni866      Ni  0.14337227  0.49958397  0.74209292     1.27400
Ni867      Ni  0.22953907  0.95357877  0.71398950     1.26100
H868        H  0.26457578  0.51367172  0.69676265     0.37600
O869        O  0.22930807  0.69149271  0.59640160    -0.82300
O870        O  0.29913895  0.76875630  0.92957118    -0.67000
O871        O  0.23291040  0.75229025  0.52963327    -1.13600
C872        C  0.17200662  0.65632812  0.93117283     1.04600
O873        O  0.23871601  0.77920397  0.88738464    -0.80200
O874        O  0.16114536  0.75565771  0.90333664    -0.67800
Ni875      Ni  0.25593828  0.74259160  0.59007786     1.34900
C876        C  0.14340692  0.76724819  0.93811671     0.83300
O877        O  0.29734981  0.80224966  0.51257432    -0.80800
O878        O  0.28229381  0.79387960  0.58568366    -0.91000
C879        C  0.27804116  0.78296372  0.89292518     0.82900
O880        O  0.30789108  0.71183638  0.58155402    -0.69200
O881        O  0.19022529  0.67385323  0.89943706    -0.88500
C882        C  0.32760074  0.70332832  0.54721388     0.83700
C883        C  0.29709354  0.81428016  0.55334696     1.05300
H884        H  0.25639573  0.69213993  0.95613384     0.37100
O885        O  0.23812546  0.71743324  0.95536615    -1.11200
O886        O  0.15806806  0.75531225  0.97842388    -0.67800
Ni887      Ni  0.20073237  0.71146105  0.50198190     1.26300
O888        O  0.31441898  0.71727524  0.50681592    -0.68100
O889        O  0.17070750  0.66993837  0.97118703    -0.80400
C890        C  0.18958812  0.69047825  0.59136686     0.83100
O891        O  0.16934559  0.70397873  0.55417205    -0.67500
Ni892      Ni  0.21449338  0.72650729  0.89473455     1.27400
Ni893      Ni  0.26939254  0.75922398  0.98272132     1.26100
H894        H  0.21490606  0.77769974  0.52955587     0.37600
O895        O  0.42249156  0.80041071  0.79857214    -0.82300
O896        O  0.07699394  0.71943308  0.73490236    -0.67000
O897        O  0.46968293  0.77392348  0.73129242    -1.13600
C898        C  0.43628377  0.64127161  0.78480902     1.04600
O899        O  0.04587987  0.67452037  0.69203792    -0.80200
O900        O  0.46812509  0.65084812  0.68731922    -0.67800
Ni901      Ni  0.45756844  0.82430185  0.75721399     1.34900
C902        C  0.43912183  0.67652079  0.66978811     0.83300
O903        O  0.05024897  0.80029967  0.71795778    -0.80800
O904        O  0.49469687  0.84767251  0.71868696    -0.91000
C905        C  0.07839796  0.69190529  0.70515884     0.82900
O906        O  0.50010920  0.82369255  0.80455339    -0.69200
O907        O  0.47368048  0.62974863  0.77507558    -0.88500
C908        C  0.02981079  0.79809860  0.82027230     0.83700
C909        C  0.03317822  0.83747775  0.71225420     1.05300
H910        H  0.00650057  0.69915267  0.79039943     0.37100
O911        O  0.99871445  0.70310362  0.75822213    -1.11200
O912        O  0.42882318  0.71060558  0.68885912    -0.67800
Ni913      Ni  0.44345182  0.72669523  0.75240142     1.26300
O914        O  0.03988544  0.76454815  0.80055708    -0.68100
O915        O  0.41882778  0.67783380  0.77535228    -0.80400
C916        C  0.38981566  0.78464785  0.78334483     0.83100
O917        O  0.39160688  0.75727941  0.75360031    -0.67500
Ni918      Ni  0.01069111  0.65187433  0.73462903     1.27400
Ni919      Ni  0.02513689  0.75029895  0.73724906     1.26100
H920        H  0.46166701  0.77831840  0.69916128     0.37600
C921        C  0.26607140  0.96642358  0.96657449    -0.14800
C922        C  0.27225078  0.96522509  0.51302429     0.07400
C923        C  0.25424905  0.49684496  0.53583061    -0.14800
C924        C  0.22556730  0.52584228  0.01153752    -0.14800
C925        C  0.21622995  0.52322152  0.96472841     0.07400
C926        C  0.23772916  0.99638867  0.94335563    -0.14800
H927        H  0.28259510  0.94328388  0.94764301     0.11400
H928        H  0.25827504  0.49655942  0.57254522     0.11400
H929        H  0.20608830  0.54707419  0.53155450     0.11400
H930        H  0.23228298  0.99583858  0.90678954     0.11400
C931        C  0.96268355  0.76734363  0.96816484    -0.14800
C932        C  0.00533582  0.75791350  0.96126082     0.07400
C933        C  0.52779414  0.72434973  0.98572853    -0.14800
C934        C  0.50777487  0.70230226  0.51676565    -0.14800
C935        C  0.46528014  0.71210754  0.52409278     0.07400
C936        C  0.44323292  0.74434483  0.00025506    -0.14800
H937        H  0.94477530  0.79331938  0.94959412     0.11400
H938        H  0.56084143  0.71718080  0.98173979     0.11400
H939        H  0.52583631  0.67666195  0.53574815     0.11400
H940        H  0.41023054  0.75162020  0.00439745     0.11400
C941        C  0.50814346  0.01457327  0.77919418    -0.14800
C942        C  0.46885012  0.52631369  0.75503919     0.07400
C943        C  0.46242349  0.52121211  0.70835188    -0.14800
C944        C  0.99384447  0.50095943  0.68596868    -0.14800
C945        C  0.03217543  0.98663482  0.71121426     0.07400
C946        C  0.53991444  0.99518699  0.75685308    -0.14800
H947        H  0.51312785  0.01659777  0.81560107     0.11400
H948        H  0.43246599  0.53068913  0.68988649     0.11400
H949        H  0.98672974  0.49284211  0.65136893     0.11400
H950        H  0.06812433  0.98183229  0.77626288     0.11400
C951        C  0.22263654  0.73970217  0.69495415    -0.14800
C952        C  0.22487665  0.70232424  0.72125483     0.07400
C953        C  0.23856759  0.70124385  0.76716999    -0.14800
C954        C  0.24720316  0.73759512  0.78738607    -0.14800
C955        C  0.24457641  0.77514768  0.76136445     0.07400
C956        C  0.23163685  0.77607889  0.71513135    -0.14800
H957        H  0.20994635  0.74172889  0.65997889     0.11400
H958        H  0.23892309  0.67291920  0.78810475     0.11400
H959        H  0.26003349  0.73533023  0.82224162     0.11400
H960        H  0.23153581  0.80436524  0.69418352     0.11400
C961        C  0.84976248  0.30237879  0.29809138     0.85100
C962        C  0.84460837  0.34919167  0.29716688    -0.55200
C963        C  0.80469360  0.36537694  0.30291125     0.08000
C964        C  0.77525940  0.33134157  0.31562519     0.18900
C965        C  0.83858772  0.28843622  0.34543214    -0.55900
C966        C  0.79924950  0.30320337  0.35504718     0.08100
C967        C  0.81489305  0.29074876  0.26477159    -0.55400
C968        C  0.77594838  0.30393744  0.27481540     0.08700
H969        H  0.86884184  0.36738768  0.28497873     0.13200
H970        H  0.74323785  0.34376639  0.32260586    -0.01100
H971        H  0.85845793  0.26604301  0.36750768     0.13500
H972        H  0.81974883  0.26869250  0.23848617     0.13300
C973        C  0.86312824  0.05514154  0.30539695     0.85100
C974        C  0.88276827  0.03997923  0.35318721    -0.55200
C975        C  0.92407435  0.04615752  0.36005012     0.08000
C976        C  0.94159828  0.06829745  0.32125514     0.16900
C977        C  0.87144784  0.10187973  0.30029238    -0.55900
C978        C  0.91378146  0.10805954  0.30772758     0.08100
C979        C  0.89284122  0.03460803  0.27241529    -0.55400
C980        C  0.93383960  0.04160357  0.28149036     0.08700
H981        H  0.86568132  0.02530779  0.37884405     0.13200
H982        H  0.97496986  0.07391232  0.32971067    -0.01100
H983        H  0.84815697  0.12560235  0.28506000     0.13500
H984        H  0.88246509  0.01573487  0.24489386     0.13300
C985        C  0.55350849  0.35589241  0.42531095     0.85100
C986        C  0.59745844  0.33433249  0.44155131    -0.55200
C987        C  0.60321419  0.29352793  0.43038473     0.08000
C988        C  0.56415875  0.27775221  0.40467221     0.18900
C989        C  0.54858405  0.34944833  0.37441283    -0.55900
C990        C  0.55261962  0.30828871  0.36308233     0.08100
C991        C  0.52273823  0.32755270  0.44488862    -0.55400
C992        C  0.52854822  0.28708746  0.43563896     0.08700
H993        H  0.62190075  0.35015757  0.45937090     0.13200
H994        H  0.56837717  0.24470182  0.39600786    -0.01100
H995        H  0.53759834  0.37475705  0.35005732     0.13500
H996        H  0.49927515  0.33826507  0.46722745     0.13300
C997        C  0.62008498  0.17510058  0.18920233     0.85100
C998        C  0.65560890  0.18782824  0.22096287    -0.55200
C999        C  0.69427134  0.17432944  0.21013748     0.08000
C1000       C  0.69430304  0.14635425  0.16992918     0.18900
C1001       C  0.63017237  0.18856275  0.14093981    -0.55900
C1002       C  0.66947173  0.17352408  0.13071060     0.08100
C1003       C  0.62597808  0.12837811  0.19085303    -0.55400
C1004       C  0.66541849  0.11260946  0.18314933     0.08700
H1005       H  0.65128799  0.21062457  0.24659868     0.13200
H1006       H  0.72619293  0.13385962  0.16253785    -0.01100
H1007       H  0.60967285  0.21018834  0.11860846     0.13500
H1008       H  0.60259096  0.10974981  0.20424041     0.13300
C1009       C  0.81073159  0.35703475  0.06322752     0.85100
C1010       C  0.80276170  0.37162154  0.11063420    -0.55200
C1011       C  0.81257073  0.41099047  0.11771237     0.08000
C1012       C  0.83057940  0.43244942  0.07685167     0.18900
C1013       C  0.78646579  0.39015206  0.03066261    -0.55900
C1014       C  0.79693694  0.42946306  0.03761399     0.08100
C1015       C  0.85704550  0.36308862  0.05758129    -0.55400
C1016       C  0.86747916  0.40305489  0.06359503     0.08700
H1017       H  0.78836504  0.35339487  0.13586534     0.13200
H1018       H  0.83843497  0.46470995  0.08253941    -0.01100
H1019       H  0.76225450  0.38322187  0.00496349     0.13500
H1020       H  0.87847509  0.33885444  0.04593839     0.13300
C1021       C  0.91754555  0.11523147  0.06444253     0.85100
C1022       C  0.94937596  0.14241495  0.04534067    -0.55200
C1023       C  0.94410027  0.18313602  0.05360345     0.08000
C1024       C  0.90767678  0.19385256  0.08338301     0.18900
C1025       C  0.92172706  0.12256632  0.11544151    -0.55900
C1026       C  0.91786637  0.16406328  0.12615856     0.08100
C1027       C  0.87421713  0.13724155  0.04690891    -0.55400
C1028       C  0.86879302  0.17830948  0.05662200     0.08700
H1029       H  0.97298211  0.13068860  0.02366129     0.13200
H1030       H  0.90375400  0.22713882  0.09113342    -0.01100
H1031       H  0.93200652  0.09756256  0.14036754     0.13500
H1032       H  0.84977469  0.12140821  0.02907808     0.13300
C1033       C  0.60296983  0.06583767  0.42621265     0.85100
C1034       C  0.61090173  0.05673981  0.37705886    -0.55200
C1035       C  0.65062749  0.06309216  0.36572993     0.08000
C1036       C  0.67811129  0.08005454  0.40453701     0.18900
C1037       C  0.63841375  0.04052604  0.45510323    -0.55900
C1038       C  0.67747656  0.04793314  0.44389933     0.08100
C1039       C  0.61313234  0.11116740  0.43174602    -0.55400
C1040       C  0.65264206  0.11854562  0.42041437     0.08700
H1041       H  0.58798607  0.04308133  0.35453063     0.13200
H1042       H  0.71033175  0.08572197  0.39596179    -0.01100
H1043       H  0.63309022  0.01789169  0.48176639     0.13500
H1044       H  0.59215854  0.13462246  0.44543158     0.13300
C1045       C  0.55608971  0.37132228  0.19241723     0.85100
C1046       C  0.53679422  0.37910025  0.14452935    -0.55200
C1047       C  0.54296403  0.41615549  0.12474809     0.08000
C1048       C  0.57255458  0.44117844  0.15330739     0.18900
C1049       C  0.60380482  0.37415564  0.18928669    -0.55900
C1050       C  0.61268625  0.41217568  0.17029295     0.08100
C1051       C  0.54309971  0.41026634  0.21764803    -0.55400
C1052       C  0.55103138  0.44643675  0.19657834     0.08700
H1053       H  0.51544234  0.35815799  0.12916408     0.13200
H1054       H  0.57835349  0.47097736  0.13586657    -0.01100
H1055       H  0.62740064  0.35270386  0.20793286     0.13500
H1056       H  0.52607281  0.40954690  0.24803314     0.13300
O1057       O  0.53897725  0.39951223  0.48481594    -0.82300
O1058       O  0.93997716  0.03810553  0.06872584    -0.67000
O1059       O  0.96990261  0.45144692  0.48438402    -1.13600
C1060       C  0.56117654  0.05326929  0.43983709     1.04600
O1061       O  0.92816569  0.07181936  0.00366223    -0.80200
O1062       O  0.95596392  0.06884457  0.42471540    -0.67800
Ni1063     Ni  0.98274974  0.39564145  0.00205827     1.34900
C1064       C  0.95079524  0.03761284  0.40186404     0.83300
O1065       O  0.91540270  0.45567969  0.05475481    -0.80800
O1066       O  0.92822288  0.39316555  0.02380902    -0.91000
C1067       C  0.92678148  0.07200920  0.04609807     0.82900
O1068       O  0.50554896  0.40036529  0.06040032    -0.69200
O1069       O  0.53628134  0.08013981  0.45731455    -0.88500
C1070       C  0.51575925  0.42988053  0.08381828     0.83700
C1071       C  0.90640086  0.41824403  0.04702815     1.05300
H1072       H  0.52134671  0.02235903  0.02311023     0.37100
O1073       O  0.49765347  0.02131954  0.50171325    -1.11200
O1074       O  0.97085986  0.00221199  0.41076842    -0.67800
Ni1075     Ni  0.51286842  0.47971273  0.45758863     1.26300
O1076       O  0.00089565  0.46738864  0.07492562    -0.68100
O1077       O  0.55458155  0.51287818  0.43408531    -0.80400
C1078       C  0.54294183  0.39913714  0.44301295     0.83100
O1079       O  0.53004788  0.43276265  0.41982302    -0.67500
Ni1080     Ni  0.48241709  0.07649957  0.48175748     1.27400
Ni1081     Ni  0.95630041  0.48996663  0.02944536     1.26100
H1082       H  0.94566974  0.45213029  0.46269868     0.37600
O1083       O  0.82127202  0.50067499  0.29451836    -0.82300
O1084       O  0.68557488  0.41634892  0.20195343    -0.67000
O1085       O  0.76713978  0.49568413  0.22395854    -1.13600
C1086       C  0.66719609  0.04594771  0.32425041     1.04600
O1087       O  0.64497156  0.47287331  0.18628287    -0.80200
O1088       O  0.65035891  0.04840062  0.21041918    -0.67800
Ni1089     Ni  0.82401707  0.47863487  0.23651952     1.34900
C1090       C  0.67905491  0.07239320  0.20672255     0.83300
O1091       O  0.76276003  0.42711331  0.17034944    -0.80800
O1092       O  0.82562996  0.45465240  0.17830458    -0.91000
C1093       C  0.65015588  0.43384641  0.18612727     0.82900
O1094       O  0.82043074  0.42635969  0.26545833    -0.69200
O1095       O  0.64126567  0.02762147  0.29841670    -0.88500
C1096       C  0.79125371  0.40491955  0.27645180     0.83700
C1097       C  0.79959273  0.43239008  0.15787018     1.05300
H1098       H  0.70074733  0.46582986  0.28557846     0.37100
O1099       O  0.70014819  0.48349539  0.25837786    -1.11200
O1100       O  0.71558079  0.06541020  0.22685344    -0.67800
Ni1101     Ni  0.73925164  0.02290678  0.27176052     1.26300
O1102       O  0.75318137  0.41430373  0.26206847    -0.68100
O1103       O  0.70618308  0.04819393  0.31733619    -0.80400
C1104       C  0.82030697  0.03864270  0.29654163     0.83100
O1105       O  0.78502129  0.05900446  0.28532552    -0.67500
Ni1106     Ni  0.64372949  0.99914426  0.24297197     1.27400
Ni1107     Ni  0.72932735  0.45404859  0.21401579     1.26100
H1108       H  0.76561129  0.01266911  0.19837234     0.37600
O1109       O  0.73026163  0.19105085  0.09641797    -0.82300
O1110       O  0.79916132  0.26970817  0.42954558    -0.67000
O1111       O  0.73306901  0.25233436  0.02978368    -1.13600
C1112       C  0.67223339  0.15723378  0.43044404     1.04600
O1113       O  0.73895477  0.28032448  0.38722665    -0.80200
O1114       O  0.66180526  0.25647653  0.40363634    -0.67800
Ni1115     Ni  0.75594512  0.24268514  0.09028971     1.34900
C1116       C  0.64372964  0.26704727  0.43850709     0.83300
O1117       O  0.79729240  0.30261420  0.01326356    -0.80800
O1118       O  0.78137746  0.29438832  0.08608862    -0.91000
C1119       C  0.77824977  0.28407789  0.39293200     0.82900
O1120       O  0.80837910  0.21295825  0.08164833    -0.69200
O1121       O  0.69027584  0.17506439  0.39876073    -0.88500
C1122       C  0.82802958  0.20450514  0.04725253     0.83700
C1123       C  0.79656784  0.31464261  0.05393383     1.05300
H1124       H  0.75676907  0.19299263  0.45550451     0.37100
O1125       O  0.73830085  0.21812227  0.45503897    -1.11200
O1126       O  0.65809621  0.25467723  0.47878847    -0.67800
Ni1127     Ni  0.70134621  0.21142181  0.00179353     1.26300
O1128       O  0.81461465  0.21808934  0.00681668    -0.68100
O1129       O  0.67156044  0.17000128  0.47087209    -0.80400
C1130       C  0.69060515  0.18962964  0.09150525     0.83100
O1131       O  0.67022200  0.20296017  0.05424533    -0.67500
Ni1132     Ni  0.71480217  0.22754865  0.39440841     1.27400
Ni1133     Ni  0.76924672  0.25996783  0.48245136     1.26100
H1134       H  0.71482875  0.27758215  0.02978167     0.37600
O1135       O  0.92343193  0.30097172  0.29878987    -0.82300
O1136       O  0.57753067  0.21799554  0.23497352    -0.67000
O1137       O  0.97032367  0.27282918  0.23145402    -1.13600
C1138       C  0.93616481  0.14069219  0.28508837     1.04600
O1139       O  0.54678692  0.17289590  0.19207606    -0.80200
O1140       O  0.96841546  0.15098869  0.18664316    -0.67800
Ni1141     Ni  0.95868101  0.32359906  0.25676961     1.34900
C1142       C  0.93861962  0.17642192  0.17049747     0.83300
O1143       O  0.55128001  0.29877377  0.21774092    -0.80800
O1144       O  0.99558522  0.34609957  0.21752924    -0.91000
C1145       C  0.57915147  0.19056745  0.20523288     0.82900
O1146       O  0.00169529  0.32249056  0.30365589    -0.69200
O1147       O  0.97301348  0.12863612  0.27398553    -0.88500
C1148       C  0.53109227  0.29650083  0.31961197     0.83700
C1149       C  0.53420716  0.33592644  0.21160219     1.05300
H1150       H  0.50738426  0.19764285  0.29030571     0.37100
O1151       O  0.49924445  0.20183988  0.25822248    -1.11200
O1152       O  0.92817770  0.20996664  0.19037553    -0.67800
Ni1153     Ni  0.94403154  0.22605691  0.25340390     1.26300
O1154       O  0.54073686  0.26275916  0.30021153    -0.68100
O1155       O  0.91931347  0.17762718  0.27697654    -0.80400
C1156       C  0.89065237  0.28512108  0.28406706     0.83100
O1157       O  0.89234869  0.25705024  0.25510429    -0.67500
Ni1158     Ni  0.51077516  0.15063767  0.23422405     1.27400
Ni1159     Ni  0.52579873  0.24887684  0.23705976     1.26100
H1160       H  0.96209028  0.27693009  0.19934034     0.37600
C1161       C  0.76942225  0.46666697  0.46455523    -0.14800
C1162       C  0.77481824  0.46536979  0.01168005     0.07400
C1163       C  0.74961586  0.99499681  0.03829637    -0.14800
C1164       C  0.72160792  0.02443314  0.51398650    -0.14800
C1165       C  0.71464762  0.02442056  0.46661107     0.07400
C1166       C  0.74047352  0.49598159  0.44119010    -0.14800
H1167       H  0.78551216  0.44301510  0.44590137     0.11400
H1168       H  0.75302902  0.99389735  0.07505740     0.11400
H1169       H  0.70179724  0.04553876  0.03425842     0.11400
H1170       H  0.73427053  0.49454400  0.40478825     0.11400
C1171       C  0.46320610  0.26518597  0.46608705    -0.14800
C1172       C  0.50631709  0.25677622  0.46107191     0.07400
C1173       C  0.02925376  0.22543257  0.48869669    -0.14800
C1174       C  0.00934635  0.20313887  0.02061254    -0.14800
C1175       C  0.96654726  0.21245600  0.02696122     0.07400
C1176       C  0.94351440  0.24324006  0.49891055    -0.14800
H1177       H  0.44496834  0.28966873  0.44542034     0.11400
H1178       H  0.06269169  0.21926235  0.48629760     0.11400
H1179       H  0.02755423  0.17824196  0.04068286     0.11400
H1180       H  0.91011176  0.24956009  0.50139536     0.11400
C1181       C  0.00876986  0.51490532  0.27803486    -0.14800
C1182       C  0.96833548  0.02581463  0.25618767     0.07400
C1183       C  0.96278293  0.02227680  0.20920951    -0.14800
C1184       C  0.49463287  0.00254448  0.18686002    -0.14800
C1185       C  0.53180242  0.48524871  0.21055843     0.07400
C1186       C  0.04016028  0.49483072  0.25562699    -0.14800
H1187       H  0.01433033  0.51762128  0.31427957     0.11400
H1188       H  0.93317307  0.03247117  0.19038543     0.11400
H1189       H  0.48821273  0.99555732  0.15178586     0.11400
H1190       H  0.56851201  0.48165233  0.27511519     0.11400
C1191       C  0.72327418  0.23956401  0.19584939    -0.14800
C1192       C  0.72562054  0.20222219  0.22218917     0.07400
C1193       C  0.73949098  0.20121139  0.26808599    -0.14800
C1194       C  0.74858574  0.23757003  0.28811284    -0.14800
C1195       C  0.74560350  0.27514178  0.26203030     0.07400
C1196       C  0.73228448  0.27599048  0.21591653    -0.14800
H1197       H  0.71050366  0.24147706  0.16088907     0.11400
H1198       H  0.73992156  0.17291783  0.28908800     0.11400
H1199       H  0.76176091  0.23535997  0.32286155     0.11400
H1200       H  0.73194379  0.30426578  0.19490497     0.11400
C1201       C  0.84970985  0.30242963  0.79820535     0.85100
C1202       C  0.84448212  0.34923784  0.79676280    -0.55200
C1203       C  0.80464182  0.36547871  0.80263363     0.08000
C1204       C  0.77530843  0.33158024  0.81598464     0.18900
C1205       C  0.83879877  0.28888711  0.84582636    -0.55900
C1206       C  0.79945931  0.30367292  0.85554468     0.08100
C1207       C  0.81466298  0.29040870  0.76536651    -0.55400
C1208       C  0.77580209  0.30385942  0.77548566     0.08700
H1209       H  0.86861414  0.36734535  0.78418261     0.13200
H1210       H  0.74333644  0.34409244  0.82304258    -0.01100
H1211       H  0.85874648  0.26659098  0.86793732     0.13500
H1212       H  0.81934315  0.26804785  0.73934854     0.13300
C1213       C  0.86363436  0.05513442  0.80465873     0.85100
C1214       C  0.88315902  0.03997923  0.85243547    -0.55200
C1215       C  0.92436171  0.04638127  0.85950231     0.08000
C1216       C  0.94194850  0.06873428  0.82083557     0.16900
C1217       C  0.87168151  0.10193988  0.79964769    -0.55900
C1218       C  0.91393823  0.10836712  0.80720148     0.08100
C1219       C  0.89356968  0.03481646  0.77174259    -0.55400
C1220       C  0.93450129  0.04208082  0.78095484     0.08700
H1221       H  0.86606942  0.02512256  0.87796332     0.13200
H1222       H  0.97524457  0.07456334  0.82943735    -0.01100
H1223       H  0.84832111  0.12551688  0.78424548     0.13500
H1224       H  0.88337394  0.01595080  0.74413631     0.13300
C1225       C  0.55313898  0.35615564  0.92516627     0.85100
C1226       C  0.59712019  0.33462327  0.94132634    -0.55200
C1227       C  0.60289203  0.29380783  0.93019777     0.08000
C1228       C  0.56377820  0.27800895  0.90453720     0.18900
C1229       C  0.54811922  0.34971771  0.87426959    -0.55900
C1230       C  0.55218107  0.30855892  0.86290835     0.08100
C1231       C  0.52243391  0.32782910  0.94478817    -0.55400
C1232       C  0.52819606  0.28735965  0.93560439     0.08700
H1233       H  0.62155985  0.35046626  0.95912757     0.13200
H1234       H  0.56798009  0.24495798  0.89588027    -0.01100
H1235       H  0.53715284  0.37504648  0.84993164     0.13500
H1236       H  0.49903849  0.33858937  0.96717047     0.13300
C1237       C  0.62022883  0.17535057  0.68915837     0.85100
C1238       C  0.65559386  0.18810058  0.72107366    -0.55200
C1239       C  0.69431705  0.17467333  0.71040243     0.08000
C1240       C  0.69457657  0.14670806  0.67020321     0.18900
C1241       C  0.63048202  0.18881926  0.64096073    -0.55900
C1242       C  0.66984176  0.17383528  0.63089582     0.08100
C1243       C  0.62618946  0.12861392  0.69086145    -0.55400
C1244       C  0.66570085  0.11291524  0.68330333     0.08700
H1245       H  0.65114091  0.21086244  0.74672323     0.13200
H1246       H  0.72652771  0.13426853  0.66296220    -0.01100
H1247       H  0.61001734  0.21040016  0.61854035     0.13500
H1248       H  0.60280692  0.10993731  0.70417749     0.13300
C1249       C  0.81109374  0.35732282  0.56246755     0.85100
C1250       C  0.80317887  0.37172180  0.61001074    -0.55200
C1251       C  0.81296554  0.41106921  0.61731616     0.08000
C1252       C  0.83103227  0.43264780  0.57659633     0.18900
C1253       C  0.78682872  0.39065573  0.53009508    -0.55900
C1254       C  0.79737071  0.42990832  0.53740138     0.08100
C1255       C  0.85738429  0.36338945  0.55681999    -0.55400
C1256       C  0.86784679  0.40330777  0.56307239     0.08700
H1257       H  0.78869131  0.35343901  0.63511364     0.13200
H1258       H  0.83891905  0.46487088  0.58246740    -0.01100
H1259       H  0.76256829  0.38394220  0.50435031     0.13500
H1260       H  0.87876896  0.33921962  0.54497799     0.13300
C1261       C  0.91756543  0.11509050  0.56443757     0.85100
C1262       C  0.94962948  0.14216212  0.54556411    -0.55200
C1263       C  0.94422329  0.18293459  0.55351702     0.08000
C1264       C  0.90756879  0.19382784  0.58285350     0.18900
C1265       C  0.92125611  0.12268784  0.61538305    -0.55900
C1266       C  0.91735997  0.16427351  0.62580831     0.08100
C1267       C  0.87435710  0.13708510  0.54640547    -0.55400
C1268       C  0.86891002  0.17820625  0.55588851     0.08700
H1269       H  0.97346007  0.13034491  0.52419661     0.13200
H1270       H  0.90357413  0.22716320  0.59038900    -0.01100
H1271       H  0.93143100  0.09782826  0.64050465     0.13500
H1272       H  0.84997451  0.12118168  0.52856309     0.13300
C1273       C  0.60265519  0.06604519  0.92593097     0.85100
C1274       C  0.61113551  0.05642854  0.87703215    -0.55200
C1275       C  0.65099735  0.06271677  0.86604081     0.08000
C1276       C  0.67808576  0.08004392  0.90495199     0.18900
C1277       C  0.63783903  0.04106924  0.95547314    -0.55900
C1278       C  0.67703702  0.04830768  0.94466804     0.08100
C1279       C  0.61272001  0.11148982  0.93099465    -0.55400
C1280       C  0.65238920  0.11877678  0.92002003     0.08700
H1281       H  0.58840312  0.04264643  0.85439523     0.13200
H1282       H  0.71042258  0.08558055  0.89668973    -0.01100
H1283       H  0.63223874  0.01861892  0.98221012     0.13500
H1284       H  0.59157840  0.13507775  0.94422030     0.13300
C1285       C  0.55606811  0.37154206  0.69187219     0.85100
C1286       C  0.53650188  0.37961712  0.64413043    -0.55200
C1287       C  0.54268728  0.41672055  0.62448094     0.08000
C1288       C  0.57244891  0.44154234  0.65303047     0.18900
C1289       C  0.60373766  0.37426527  0.68838691    -0.55900
C1290       C  0.61259216  0.41235653  0.66957164     0.08100
C1291       C  0.54336625  0.41033949  0.71745732    -0.55400
C1292       C  0.55115138  0.44660585  0.69650151     0.08700
H1293       H  0.51508189  0.35875724  0.62872735     0.13200
H1294       H  0.57821154  0.47141112  0.63571274    -0.01100
H1295       H  0.62738379  0.35267187  0.70674857     0.13500
H1296       H  0.52638178  0.40947620  0.74786684     0.13300
O1297       O  0.53864175  0.39956168  0.98486280    -0.82300
O1298       O  0.94008414  0.03789977  0.56891164    -0.67000
O1299       O  0.96955539  0.45130673  0.98484999    -1.13600
C1300       C  0.56078988  0.05343476  0.93943108     1.04600
O1301       O  0.92839167  0.07159716  0.50386451    -0.80200
O1302       O  0.95597219  0.06896743  0.92433264    -0.67800
Ni1303     Ni  0.98312524  0.39584327  0.50181295     1.34900
C1304       C  0.95083359  0.03774530  0.90144602     0.83300
O1305       O  0.91554046  0.45606607  0.55402199    -0.80800
O1306       O  0.92856617  0.39344930  0.52334742    -0.91000
C1307       C  0.92691500  0.07181044  0.54626603     0.82900
O1308       O  0.50555126  0.40090316  0.56005407    -0.69200
O1309       O  0.53594526  0.08026834  0.95703461    -0.88500
C1310       C  0.51568578  0.43045775  0.58344210     0.83700
C1311       C  0.90667624  0.41856580  0.54644283     1.05300
H1312       H  0.52165132  0.02223357  0.52340231     0.37100
O1313       O  0.49733386  0.02140376  0.00145953    -1.11200
O1314       O  0.97057754  0.00220858  0.91056130    -0.67800
Ni1315     Ni  0.51244452  0.47972747  0.95794381     1.26300
O1316       O  0.00086335  0.46799822  0.57448297    -0.68100
O1317       O  0.55406570  0.51307925  0.93432299    -0.80400
C1318       C  0.54251934  0.39932161  0.94301584     0.83100
O1319       O  0.52950414  0.43296828  0.91993333    -0.67500
Ni1320     Ni  0.48209887  0.07658864  0.98150122     1.27400
Ni1321     Ni  0.95643299  0.49031561  0.52874314     1.26100
H1322       H  0.94524465  0.45208158  0.96326066     0.37600
O1323       O  0.82092685  0.50039636  0.79438638    -0.82300
O1324       O  0.68553480  0.41619394  0.70114611    -0.67000
O1325       O  0.76685428  0.49559710  0.72374974    -1.13600
C1326       C  0.66777675  0.04576428  0.82450429     1.04600
O1327       O  0.64505321  0.47285467  0.68581759    -0.80200
O1328       O  0.65079574  0.04844296  0.70990757    -0.67800
Ni1329     Ni  0.82375634  0.47870687  0.73618779     1.34900
C1330       C  0.67935369  0.07268146  0.70682202     0.83300
O1331       O  0.76286510  0.42705514  0.66985042    -0.80800
O1332       O  0.82549575  0.45501937  0.67780770    -0.91000
C1333       C  0.65014830  0.43383677  0.68541579     0.82900
O1334       O  0.82025487  0.42628564  0.76478021    -0.69200
O1335       O  0.64174794  0.02802040  0.79819360    -0.88500
C1336       C  0.79111724  0.40485943  0.77592974     0.83700
C1337       C  0.79969277  0.43249644  0.65740840     1.05300
H1338       H  0.70044643  0.46534736  0.78513948     0.37100
O1339       O  0.69986147  0.48312272  0.75802157    -1.11200
O1340       O  0.71568607  0.06589526  0.72747421    -0.67800
Ni1341     Ni  0.73963975  0.02289730  0.77167508     1.26300
O1342       O  0.75302968  0.41414875  0.76156438    -0.68100
O1343       O  0.70689194  0.04764722  0.81789901    -0.80400
C1344       C  0.82090525  0.03850624  0.79578388     0.83100
O1345       O  0.78549104  0.05885535  0.78526540    -0.67500
Ni1346     Ni  0.64402667  0.99937985  0.74280248     1.27400
Ni1347     Ni  0.72920243  0.45388747  0.71352389     1.26100
H1348       H  0.76529096  0.01334050  0.69778761     0.37600
O1349       O  0.73067368  0.19138559  0.59668239    -0.82300
O1350       O  0.79920688  0.26997608  0.93008532    -0.67000
O1351       O  0.73343900  0.25235770  0.52956768    -1.13600
C1352       C  0.67195423  0.15752626  0.93011557     1.04600
O1353       O  0.73908054  0.28074105  0.88761339    -0.80200
O1354       O  0.66173456  0.25699701  0.90358653    -0.67800
Ni1355     Ni  0.75653261  0.24287455  0.59000528     1.34900
C1356       C  0.64346107  0.26735050  0.93840832     0.83300
O1357       O  0.79740101  0.30287292  0.51240173    -0.80800
O1358       O  0.78217009  0.29445964  0.58541139    -0.91000
C1359       C  0.77839365  0.28444556  0.89342002     0.82900
O1360       O  0.80864626  0.21278165  0.58105710    -0.69200
O1361       O  0.69002993  0.17549562  0.89852279    -0.88500
C1362       C  0.82820754  0.20438621  0.54659789     0.83700
C1363       C  0.79696738  0.31486948  0.55310830     1.05300
H1364       H  0.75651270  0.19320194  0.95555218     0.37100
O1365       O  0.73808078  0.21835081  0.95513850    -1.11200
O1366       O  0.65769754  0.25481207  0.97870207    -0.67800
Ni1367     Ni  0.70171635  0.21132974  0.50185442     1.26300
O1368       O  0.81487332  0.21819246  0.50624291    -0.68100
O1369       O  0.67125381  0.17017334  0.97058840    -0.80400
C1370       C  0.69102799  0.18991078  0.59171535     0.83100
O1371       O  0.67067017  0.20307649  0.55439065    -0.67500
Ni1372     Ni  0.71473603  0.22798574  0.89447547     1.27400
Ni1373     Ni  0.76909666  0.26000731  0.98290057     1.26100
H1374       H  0.71518031  0.27759240  0.52958208     0.37600
O1375       O  0.92334341  0.30133092  0.79835054    -0.82300
O1376       O  0.57749013  0.21829797  0.73470681    -0.67000
O1377       O  0.97016631  0.27319222  0.73081767    -1.13600
C1378       C  0.93612789  0.14099350  0.78429820     1.04600
O1379       O  0.54688611  0.17338555  0.69146876    -0.80200
O1380       O  0.96851897  0.15167204  0.68558495    -0.67800
Ni1381     Ni  0.95856206  0.32394973  0.75623036     1.34900
C1382       C  0.93836069  0.17683913  0.66986766     0.83300
O1383       O  0.55128293  0.29905072  0.71740600    -0.80800
O1384       O  0.99547177  0.34646883  0.71699132    -0.91000
C1385       C  0.57923585  0.19089267  0.70494637     0.82900
O1386       O  0.00158132  0.32283985  0.80311328    -0.69200
O1387       O  0.97280108  0.12889219  0.77272634    -0.88500
C1388       C  0.53088931  0.29681821  0.81923245     0.83700
C1389       C  0.53415561  0.33615070  0.71098413     1.05300
H1390       H  0.50733330  0.19775658  0.78966062     0.37100
O1391       O  0.49914418  0.20210577  0.75760457    -1.11200
O1392       O  0.92775122  0.21023898  0.68993185    -0.67800
Ni1393     Ni  0.94392781  0.22640746  0.75285261     1.26300
O1394       O  0.54045810  0.26300385  0.79990862    -0.68100
O1395       O  0.91933679  0.17799487  0.77658589    -0.80400
C1396       C  0.89057432  0.28531665  0.78386899     0.83100
O1397       O  0.89222120  0.25737501  0.75475989    -0.67500
Ni1398     Ni  0.51067241  0.15102479  0.73328557     1.27400
Ni1399     Ni  0.52573004  0.24917421  0.73663814     1.26100
H1400       H  0.96189005  0.27728871  0.69870873     0.37600
C1401       C  0.76773091  0.46463860  0.96428470    -0.14800
C1402       C  0.77519953  0.46607243  0.51209883     0.07400
C1403       C  0.75075161  0.99520653  0.53705452    -0.14800
C1404       C  0.72055246  0.02429746  0.01514097    -0.14800
C1405       C  0.71391168  0.02450282  0.96770366     0.07400
C1406       C  0.73874864  0.49381524  0.94075316    -0.14800
H1407       H  0.78283436  0.44011641  0.94597103     0.11400
H1408       H  0.75429018  0.99417948  0.57381127     0.11400
H1409       H  0.70293101  0.04569689  0.53315526     0.11400
H1410       H  0.73153866  0.49140660  0.90461297     0.11400
C1411       C  0.46308753  0.26624921  0.96742369    -0.14800
C1412       C  0.50590925  0.25715686  0.96122152     0.07400
C1413       C  0.02877500  0.22521732  0.98780347    -0.14800
C1414       C  0.00962736  0.20334806  0.52132594    -0.14800
C1415       C  0.96659673  0.21215839  0.52674049     0.07400
C1416       C  0.94356061  0.24419110  0.99999910    -0.14800
H1417       H  0.44488731  0.29124414  0.94750617     0.11400
H1418       H  0.06204771  0.21857574  0.98468506     0.11400
H1419       H  0.02787330  0.17888910  0.54202713     0.11400
H1420       H  0.91032249  0.25096651  0.00318761     0.11400
C1421       C  0.00844626  0.51533663  0.77790202    -0.14800
C1422       C  0.96913191  0.02670660  0.75557197     0.07400
C1423       C  0.96356712  0.02323820  0.70858293    -0.14800
C1424       C  0.49542789  0.00335290  0.68635499    -0.14800
C1425       C  0.53132178  0.48519366  0.71039801     0.07400
C1426       C  0.03984449  0.49537565  0.75538657    -0.14800
H1427       H  0.01424441  0.51839925  0.81406143     0.11400
H1428       H  0.93394049  0.03342663  0.68979890     0.11400
H1429       H  0.48901519  0.99643285  0.65126626     0.11400
H1430       H  0.56850185  0.48253324  0.77460829     0.11400
C1431       C  0.72295005  0.24010379  0.69642470    -0.14800
C1432       C  0.72550201  0.20264936  0.72259975     0.07400
C1433       C  0.73921031  0.20152977  0.76854140    -0.14800
C1434       C  0.74802011  0.23785735  0.78876638    -0.14800
C1435       C  0.74507901  0.27547524  0.76279585     0.07400
C1436       C  0.73170209  0.27650196  0.71669226    -0.14800
H1437       H  0.71027790  0.24206142  0.66141941     0.11400
H1438       H  0.73973853  0.17314586  0.78941123     0.11400
H1439       H  0.76117466  0.23557127  0.82352717     0.11400
H1440       H  0.73131381  0.30485911  0.69580623     0.11400
C1441       C  0.84883152  0.80134388  0.29767254     0.85100
C1442       C  0.84370166  0.84809064  0.29792869    -0.55200
C1443       C  0.80379415  0.86412423  0.30383102     0.08000
C1444       C  0.77438070  0.82990839  0.31569360     0.18900
C1445       C  0.83769964  0.78648191  0.34469529    -0.55900
C1446       C  0.79845636  0.80120104  0.35462307     0.08100
C1447       C  0.81400352  0.79030759  0.26398657    -0.55400
C1448       C  0.77505049  0.80338580  0.27416751     0.08700
H1449       H  0.86797051  0.86650602  0.28621693     0.13200
H1450       H  0.74237750  0.84217405  0.32292759    -0.01100
H1451       H  0.85766872  0.76394152  0.36648740     0.13500
H1452       H  0.81891633  0.76872592  0.23725387     0.13300
C1453       C  0.86380037  0.55561931  0.30412426     0.85100
C1454       C  0.88328404  0.54009488  0.35189320    -0.55200
C1455       C  0.92463379  0.54611182  0.35902019     0.08000
C1456       C  0.94233901  0.56852317  0.32048634     0.16900
C1457       C  0.87224564  0.60230290  0.29942814    -0.55900
C1458       C  0.91454414  0.60839841  0.30719162     0.08100
C1459       C  0.89369098  0.53517127  0.27119609    -0.55400
C1460       C  0.93476232  0.54209867  0.28042824     0.08700
H1461       H  0.86609091  0.52518882  0.37728864     0.13200
H1462       H  0.97567388  0.57404962  0.32921602    -0.01100
H1463       H  0.84902447  0.62616185  0.28434339     0.13500
H1464       H  0.88331022  0.51644236  0.24355225     0.13300
C1465       C  0.55344979  0.85746807  0.42621895     0.85100
C1466       C  0.59746335  0.83538178  0.44161183    -0.55200
C1467       C  0.60278880  0.79463948  0.42987748     0.08000
C1468       C  0.56321733  0.77953154  0.40442952     0.18900
C1469       C  0.54759815  0.85145117  0.37511872    -0.55900
C1470       C  0.55140638  0.81038213  0.36328774     0.08100
C1471       C  0.52276983  0.82915963  0.44593566    -0.55400
C1472       C  0.52790873  0.78888290  0.43580660     0.08700
H1473       H  0.62216712  0.85076130  0.45956337     0.13200
H1474       H  0.56695690  0.74657617  0.39533611    -0.01100
H1475       H  0.53635476  0.87693424  0.35108635     0.13500
H1476       H  0.49960193  0.83977307  0.46864533     0.13300
C1477       C  0.61934615  0.67602977  0.18848988     0.85100
C1478       C  0.65518793  0.68843189  0.21992871    -0.55200
C1479       C  0.69364544  0.67464941  0.20867019     0.08000
C1480       C  0.69319970  0.64679276  0.16848674     0.18900
C1481       C  0.62921949  0.68953187  0.14015501    -0.55900
C1482       C  0.66834976  0.67419018  0.12967755     0.08100
C1483       C  0.62498260  0.62918703  0.18996555    -0.55400
C1484       C  0.66429973  0.61326504  0.18181021     0.08700
H1485       H  0.65124131  0.71122922  0.24562316     0.13200
H1486       H  0.72495237  0.63412539  0.16080992    -0.01100
H1487       H  0.60885166  0.71148794  0.11807421     0.13500
H1488       H  0.60170846  0.61060267  0.20364514     0.13300
C1489       C  0.81093589  0.85680827  0.06323224     0.85100
C1490       C  0.80398851  0.87071241  0.11125450    -0.55200
C1491       C  0.81314047  0.91031145  0.11853187     0.08000
C1492       C  0.82944387  0.93268778  0.07720541     0.18900
C1493       C  0.78520318  0.88983479  0.03176143    -0.55900
C1494       C  0.79486142  0.92933058  0.03899541     0.08100
C1495       C  0.85673173  0.86410040  0.05626868    -0.55400
C1496       C  0.86649369  0.90427371  0.06254121     0.08700
H1497       H  0.79052511  0.85190772  0.13671388     0.13200
H1498       H  0.83667721  0.96512494  0.08292898    -0.01100
H1499       H  0.76060160  0.88270909  0.00660786     0.13500
H1500       H  0.87837100  0.84038907  0.04401176     0.13300
C1501       C  0.91807925  0.61375706  0.06442038     0.85100
C1502       C  0.94915250  0.64118403  0.04427168    -0.55200
C1503       C  0.94368360  0.68195872  0.05221080     0.08000
C1504       C  0.90790519  0.69259558  0.08282692     0.18900
C1505       C  0.92326305  0.62155689  0.11535457    -0.55900
C1506       C  0.91910637  0.66315600  0.12579252     0.08100
C1507       C  0.87430334  0.63541570  0.04765115    -0.55400
C1508       C  0.86877513  0.67664116  0.05696234     0.08700
H1509       H  0.97245101  0.62950925  0.02222188     0.13200
H1510       H  0.90393954  0.72594151  0.09030038    -0.01100
H1511       H  0.93403485  0.59677432  0.14037066     0.13500
H1512       H  0.84979342  0.61932728  0.03029636     0.13300
C1513       C  0.60400946  0.56374897  0.42615683     0.85100
C1514       C  0.61166874  0.55604986  0.37666178    -0.55200
C1515       C  0.65114656  0.56332237  0.36521928     0.08000
C1516       C  0.67864996  0.57968868  0.40437688     0.18900
C1517       C  0.63993032  0.53816875  0.45415247    -0.55900
C1518       C  0.67877055  0.54663118  0.44292579     0.08100
C1519       C  0.61365799  0.60907423  0.43293030    -0.55400
C1520       C  0.65283605  0.61734525  0.42149375     0.08700
H1521       H  0.58878851  0.54260877  0.35389210     0.13200
H1522       H  0.71065434  0.58610396  0.39571037    -0.01100
H1523       H  0.63511526  0.51495882  0.48041802     0.13500
H1524       H  0.59243358  0.63199857  0.44709133     0.13300
C1525       C  0.55530948  0.87255721  0.19269582     0.85100
C1526       C  0.53566922  0.88073262  0.14503136    -0.55200
C1527       C  0.54191366  0.91781691  0.12537277     0.08000
C1528       C  0.57205545  0.94241049  0.15388455     0.18900
C1529       C  0.60300244  0.87497657  0.18914364    -0.55900
C1530       C  0.61209607  0.91296024  0.17029604     0.08100
C1531       C  0.54291961  0.91129408  0.21836220    -0.55400
C1532       C  0.55095988  0.94750471  0.19747743     0.08700
H1533       H  0.51409086  0.85995874  0.12975362     0.13200
H1534       H  0.57798449  0.97225919  0.13664502    -0.01100
H1535       H  0.62655080  0.85320065  0.20739016     0.13500
H1536       H  0.52602669  0.91044838  0.24884547     0.13300
O1537       O  0.53887787  0.90077378  0.48639633    -0.82300
O1538       O  0.94081125  0.53641979  0.06860167    -0.67000
O1539       O  0.96974499  0.95302618  0.48541517    -1.13600
C1540       C  0.56217991  0.55097988  0.43944902     1.04600
O1541       O  0.92905725  0.57019562  0.00363206    -0.80200
O1542       O  0.95758976  0.56795104  0.42360444    -0.67800
Ni1543     Ni  0.98219479  0.89742744  0.00262989     1.34900
C1544       C  0.95138928  0.53688470  0.40079058     0.83300
O1545       O  0.91472965  0.95722991  0.05495626    -0.80800
O1546       O  0.92707821  0.89534049  0.02262698    -0.91000
C1547       C  0.92754328  0.57038508  0.04606606     0.82900
O1548       O  0.50318328  0.90223697  0.06166286    -0.69200
O1549       O  0.53762098  0.57776642  0.45746204    -0.88500
C1550       C  0.51451000  0.93173124  0.08453903     0.83700
C1551       C  0.90536298  0.92004085  0.04630251     1.05300
H1552       H  0.52218909  0.51973436  0.02266260     0.37100
O1553       O  0.49820055  0.51950102  0.50054061    -1.11200
O1554       O  0.97051925  0.50102220  0.40971268    -0.67800
Ni1555     Ni  0.51283839  0.98144716  0.45904935     1.26300
O1556       O  0.00051318  0.96945665  0.07520075    -0.68100
O1557       O  0.55422117  0.01488173  0.43557819    -0.80400
C1558       C  0.54321082  0.90066290  0.44458379     0.83100
O1559       O  0.53057808  0.93447661  0.42159094    -0.67500
Ni1560     Ni  0.48349042  0.57480400  0.48116332     1.27400
Ni1561     Ni  0.95574730  0.99177446  0.02974463     1.26100
H1562       H  0.94561525  0.95387549  0.46358103     0.37600
O1563       O  0.82106204  0.99979007  0.29626411    -0.82300
O1564       O  0.68534429  0.91602476  0.20144863    -0.67000
O1565       O  0.76746551  0.99454663  0.22535552    -1.13600
C1566       C  0.66757733  0.54711770  0.32327117     1.04600
O1567       O  0.64542961  0.97300427  0.18646794    -0.80200
O1568       O  0.64989449  0.54881792  0.20879192    -0.67800
Ni1569     Ni  0.82422378  0.97730640  0.23845258     1.34900
C1570       C  0.67831951  0.57313073  0.20530188     0.83300
O1571       O  0.76285357  0.92666939  0.17059855    -0.80800
O1572       O  0.82632495  0.95281627  0.18036896    -0.91000
C1573       C  0.65006200  0.93401002  0.18586052     0.82900
O1574       O  0.81984168  0.92550379  0.26782118    -0.69200
O1575       O  0.64150984  0.52916898  0.29722375    -0.88500
C1576       C  0.79054253  0.90372791  0.27755108     0.83700
C1577       C  0.80008306  0.93133486  0.15899134     1.05300
H1578       H  0.70065790  0.96443854  0.28615300     0.37100
O1579       O  0.70015058  0.98232963  0.25913235    -1.11200
O1580       O  0.71488225  0.56656188  0.22561544    -0.67800
Ni1581     Ni  0.73929567  0.52415590  0.27046078     1.26300
O1582       O  0.75273376  0.91276065  0.26196846    -0.68100
O1583       O  0.70656571  0.54940055  0.31633039    -0.80400
C1584       C  0.82073969  0.53949223  0.29493022     0.83100
O1585       O  0.78548602  0.56006732  0.28366881    -0.67500
Ni1586     Ni  0.64365435  0.49996129  0.24227710     1.27400
Ni1587     Ni  0.72938356  0.95325294  0.21446253     1.26100
H1588       H  0.76489815  0.51365364  0.19683008     0.37600
O1589       O  0.72948801  0.69114980  0.09595440    -0.82300
O1590       O  0.79878218  0.76841808  0.42957994    -0.67000
O1591       O  0.73338639  0.75212532  0.02966822    -1.13600
C1592       C  0.67159065  0.65651327  0.43118319     1.04600
O1593       O  0.73837332  0.77910326  0.38753726    -0.80200
O1594       O  0.66089560  0.75590922  0.40332930    -0.67800
Ni1595     Ni  0.75626272  0.74218432  0.09008448     1.34900
C1596       C  0.64304736  0.76733790  0.43807478     0.83300
O1597       O  0.79763231  0.80224347  0.01286421    -0.80800
O1598       O  0.78271934  0.79342742  0.08599780    -0.91000
C1599       C  0.77773372  0.78250036  0.39289103     0.82900
O1600       O  0.80815064  0.71134798  0.08161840    -0.69200
O1601       O  0.68959693  0.67416400  0.39940105    -0.88500
C1602       C  0.82803539  0.70304759  0.04735552     0.83700
C1603       C  0.79733811  0.81407189  0.05372206     1.05300
H1604       H  0.75583901  0.69215154  0.45616091     0.37100
O1605       O  0.73757897  0.71744831  0.45542077    -1.11200
O1606       O  0.65747251  0.75517117  0.47842430    -0.67800
Ni1607     Ni  0.70114918  0.71143860  0.00186689     1.26300
O1608       O  0.81505005  0.71726989  0.00696703    -0.68100
O1609       O  0.67040867  0.66988116  0.47132210    -0.80400
C1610       C  0.68974570  0.69036112  0.09092232     0.83100
O1611       O  0.66956976  0.70408291  0.05382056    -0.67500
Ni1612     Ni  0.71404787  0.72658267  0.39475995     1.27400
Ni1613     Ni  0.76890042  0.75921387  0.48267162     1.26100
H1614       H  0.71541966  0.77754893  0.02969089     0.37600
O1615       O  0.92228805  0.80100174  0.29818211    -0.82300
O1616       O  0.57728414  0.71946689  0.23465920    -0.67000
O1617       O  0.96978830  0.77392554  0.23113620    -1.13600
C1618       C  0.93691521  0.64136475  0.28519929     1.04600
O1619       O  0.54613130  0.67446552  0.19199382    -0.80200
O1620       O  0.96847818  0.65067469  0.18768898    -0.67800
Ni1621     Ni  0.95756766  0.82447048  0.25671447     1.34900
C1622       C  0.93921995  0.67616285  0.17035748     0.83300
O1623       O  0.55044039  0.80016810  0.21756157    -0.80800
O1624       O  0.99477011  0.84755826  0.21813310    -0.91000
C1625       C  0.57865563  0.69193776  0.20490428     0.82900
O1626       O  0.00008572  0.82399759  0.30410053    -0.69200
O1627       O  0.97433073  0.62989996  0.27544642    -0.88500
C1628       C  0.52995223  0.79851773  0.31972325     0.83700
C1629       C  0.53333193  0.83729083  0.21177789     1.05300
H1630       H  0.50694659  0.69935383  0.29046790     0.37100
O1631       O  0.49904032  0.70319540  0.25830558    -1.11200
O1632       O  0.92892456  0.71029295  0.18932258    -0.67800
Ni1633     Ni  0.94374935  0.72673505  0.25262304     1.26300
O1634       O  0.54008467  0.76490124  0.30015316    -0.68100
O1635       O  0.91939205  0.67790312  0.27585131    -0.80400
C1636       C  0.88975816  0.78478939  0.28327950     0.83100
O1637       O  0.89173954  0.75716512  0.25382641    -0.67500
Ni1638     Ni  0.51111259  0.65192054  0.23486450     1.27400
Ni1639     Ni  0.52534064  0.75030064  0.23702010     1.26100
H1640       H  0.96168173  0.77813087  0.19900462     0.37600
C1641       C  0.76692639  0.96652053  0.46534884    -0.14800
C1642       C  0.77133445  0.96507307  0.01421116     0.07400
C1643       C  0.75516249  0.49729417  0.03488369    -0.14800
C1644       C  0.72460915  0.52545795  0.51257982    -0.14800
C1645       C  0.71662889  0.52412528  0.46542149     0.07400
C1646       C  0.73851034  0.99645183  0.44217477    -0.14800
H1647       H  0.78334590  0.94330392  0.44642131     0.11400
H1648       H  0.76007813  0.49801043  0.07147627     0.11400
H1649       H  0.70799735  0.54845646  0.03022484     0.11400
H1650       H  0.73289085  0.99581295  0.40563240     0.11400
C1651       C  0.46213556  0.76790442  0.46663027    -0.14800
C1652       C  0.50483388  0.75845426  0.45995429     0.07400
C1653       C  0.02713761  0.72479488  0.48429834    -0.14800
C1654       C  0.00840557  0.70156521  0.01793516    -0.14800
C1655       C  0.96593027  0.71134406  0.02538880     0.07400
C1656       C  0.94263977  0.74512312  0.49891286    -0.14800
H1657       H  0.44429849  0.79385844  0.44793884     0.11400
H1658       H  0.06016567  0.71749630  0.48030116     0.11400
H1659       H  0.02648841  0.67585308  0.03677293     0.11400
H1660       H  0.90965892  0.75249894  0.50308652     0.11400
C1661       C  0.00738674  0.01377256  0.27977281    -0.14800
C1662       C  0.96935253  0.52648263  0.25489983     0.07400
C1663       C  0.96324930  0.52195238  0.20810820    -0.14800
C1664       C  0.49472569  0.50156667  0.18586157    -0.14800
C1665       C  0.53159565  0.98609537  0.21173193     0.07400
C1666       C  0.03927632  0.99469314  0.25738013    -0.14800
H1667       H  0.01237331  0.01574743  0.31618623     0.11400
H1668       H  0.93345269  0.53179486  0.18950122     0.11400
H1669       H  0.48779969  0.49386032  0.15109916     0.11400
H1670       H  0.56752475  0.98137480  0.27679478     0.11400
C1671       C  0.72357737  0.73929758  0.19407077    -0.14800
C1672       C  0.72541261  0.70204696  0.22052702     0.07400
C1673       C  0.73865616  0.70110834  0.26654787    -0.14800
C1674       C  0.74688182  0.73755083  0.28676657    -0.14800
C1675       C  0.74461069  0.77498707  0.26061125     0.07400
C1676       C  0.73232149  0.77574424  0.21422377    -0.14800
H1677       H  0.71123322  0.74124088  0.15899088     0.11400
H1678       H  0.73872230  0.67286942  0.28756501     0.11400
H1679       H  0.75911140  0.73543856  0.32181910     0.11400
H1680       H  0.73249729  0.80395364  0.19320927     0.11400
C1681       C  0.84897882  0.80155624  0.79762331     0.85100
C1682       C  0.84408293  0.84831701  0.79722114    -0.55200
C1683       C  0.80428463  0.86461180  0.80305097     0.08000
C1684       C  0.77472142  0.83062108  0.81562451     0.18900
C1685       C  0.83797612  0.78726503  0.84489043    -0.55900
C1686       C  0.79877187  0.80210355  0.85481431     0.08100
C1687       C  0.81400100  0.79025633  0.76428132    -0.55400
C1688       C  0.77514046  0.80360298  0.77447542     0.08700
H1689       H  0.86840240  0.86646942  0.78514528     0.13200
H1690       H  0.74279205  0.84311754  0.82284316    -0.01100
H1691       H  0.85790044  0.76474201  0.86675170     0.13500
H1692       H  0.81872032  0.76833339  0.73783416     0.13300
C1693       C  0.86328795  0.55547603  0.80438863     0.85100
C1694       C  0.88276117  0.54025002  0.85227093    -0.55200
C1695       C  0.92408695  0.54644491  0.85944923     0.08000
C1696       C  0.94178522  0.56862875  0.82068492     0.16900
C1697       C  0.87163444  0.60217628  0.79932475    -0.55900
C1698       C  0.91391277  0.60840845  0.80702132     0.08100
C1699       C  0.89324927  0.53489127  0.77164618    -0.55400
C1700       C  0.93428590  0.54193214  0.78078335     0.08700
H1701       H  0.86558774  0.52535088  0.87768780     0.13200
H1702       H  0.97508754  0.57427330  0.82937332    -0.01100
H1703       H  0.84837234  0.62590057  0.78403313     0.13500
H1704       H  0.88291378  0.51603644  0.74409862     0.13300
C1705       C  0.55341045  0.85710143  0.92679845     0.85100
C1706       C  0.59755344  0.83515225  0.94197881    -0.55200
C1707       C  0.60299534  0.79439799  0.93021845     0.08000
C1708       C  0.56332837  0.77909619  0.90513096     0.18900
C1709       C  0.54737005  0.85096370  0.87576033    -0.55900
C1710       C  0.55124091  0.80989106  0.86396627     0.08100
C1711       C  0.52296977  0.82868779  0.94681389    -0.55400
C1712       C  0.52820142  0.78836932  0.93681649     0.08700
H1713       H  0.62227224  0.85064725  0.95974784     0.13200
H1714       H  0.56711511  0.74613263  0.89607760    -0.01100
H1715       H  0.53605666  0.87641595  0.85171801     0.13500
H1716       H  0.49992567  0.83928357  0.96967195     0.13300
C1717       C  0.61913256  0.67594277  0.68900828     0.85100
C1718       C  0.65487990  0.68820135  0.72068677    -0.55200
C1719       C  0.69338211  0.67458451  0.70946686     0.08000
C1720       C  0.69303044  0.64684794  0.66911974     0.18900
C1721       C  0.62910471  0.68960573  0.64075946    -0.55900
C1722       C  0.66823823  0.67431982  0.63028400     0.08100
C1723       C  0.62472834  0.62912257  0.69031718    -0.55400
C1724       C  0.66406560  0.61324142  0.68221882     0.08700
H1725       H  0.65084245  0.71086358  0.74650999     0.13200
H1726       H  0.72480879  0.63421820  0.66149553    -0.01100
H1727       H  0.60872783  0.71155332  0.61868000     0.13500
H1728       H  0.60139789  0.61050403  0.70383156     0.13300
C1729       C  0.81089113  0.85692428  0.56263191     0.85100
C1730       C  0.80356404  0.87120354  0.61041824    -0.55200
C1731       C  0.81286340  0.91078289  0.61748787     0.08000
C1732       C  0.82973456  0.93274938  0.57631295     0.18900
C1733       C  0.78563107  0.88991973  0.53069687    -0.55900
C1734       C  0.79551645  0.92937544  0.53778781     0.08100
C1735       C  0.85688347  0.86389068  0.55611478    -0.55400
C1736       C  0.86678609  0.90405222  0.56227298     0.08700
H1737       H  0.78981398  0.85264728  0.63587197     0.13200
H1738       H  0.83709046  0.96517188  0.58192949    -0.01100
H1739       H  0.76112756  0.88282805  0.50541406     0.13500
H1740       H  0.87853389  0.84002196  0.54416106     0.13300
C1741       C  0.91788753  0.61425369  0.56344391     0.85100
C1742       C  0.94857809  0.64184393  0.54290126    -0.55200
C1743       C  0.94308662  0.68259469  0.55091562     0.08000
C1744       C  0.90762901  0.69308617  0.58202310     0.18900
C1745       C  0.92352032  0.62204253  0.61436150    -0.55900
C1746       C  0.91927587  0.66361599  0.62491382     0.08100
C1747       C  0.87393688  0.63576080  0.54715252    -0.55400
C1748       C  0.86835316  0.67695862  0.55661635     0.08700
H1749       H  0.97168280  0.63026333  0.52057993     0.13200
H1750       H  0.90364120  0.72642463  0.58952917    -0.01100
H1751       H  0.93441889  0.59721646  0.63929475     0.13500
H1752       H  0.84937349  0.61961507  0.52997691     0.13300
C1753       C  0.60372030  0.56383927  0.92629620     0.85100
C1754       C  0.61109862  0.55626533  0.87665376    -0.55200
C1755       C  0.65061604  0.56322890  0.86505354     0.08000
C1756       C  0.67840185  0.57937893  0.90414541     0.18900
C1757       C  0.63963769  0.53793868  0.95395679    -0.55900
C1758       C  0.67847190  0.54616853  0.94251798     0.08100
C1759       C  0.61378707  0.60907038  0.93323645    -0.55400
C1760       C  0.65298544  0.61718358  0.92157517     0.08700
H1761       H  0.58807912  0.54292803  0.85396628     0.13200
H1762       H  0.71042141  0.58558218  0.89534177    -0.01100
H1763       H  0.63482396  0.51466661  0.98015690     0.13500
H1764       H  0.59277722  0.63205063  0.94760904     0.13300
C1765       C  0.55521732  0.87264183  0.69291795     0.85100
C1766       C  0.53567542  0.88064468  0.64517357    -0.55200
C1767       C  0.54212377  0.91760967  0.62534306     0.08000
C1768       C  0.57226820  0.94225262  0.65374150     0.18900
C1769       C  0.60297737  0.87496138  0.68947512    -0.55900
C1770       C  0.61221542  0.91282133  0.67041193     0.08100
C1771       C  0.54280768  0.91158846  0.71826550    -0.55400
C1772       C  0.55107526  0.94766070  0.69720935     0.08700
H1773       H  0.51399750  0.85992798  0.62997024     0.13200
H1774       H  0.57830255  0.97198782  0.63632588    -0.01100
H1775       H  0.62644839  0.85324252  0.70792432     0.13500
H1776       H  0.52587610  0.91097990  0.74872410     0.13300
O1777       O  0.53856591  0.90068894  0.98673372    -0.82300
O1778       O  0.94076088  0.53692057  0.56767578    -0.67000
O1779       O  0.96949781  0.95310958  0.98540482    -1.13600
C1780       C  0.56184574  0.55112873  0.93985224     1.04600
O1781       O  0.92911811  0.57062570  0.50268581    -0.80200
O1782       O  0.95728005  0.56814009  0.92422299    -0.67800
Ni1783     Ni  0.98256644  0.89731974  0.50246619     1.34900
C1784       C  0.95091179  0.53715258  0.90129743     0.83300
O1785       O  0.91494781  0.95698570  0.55482595    -0.80800
O1786       O  0.92753209  0.89504565  0.52263505    -0.91000
C1787       C  0.92747352  0.57085846  0.54509500     0.82900
O1788       O  0.50383027  0.90205820  0.56139989    -0.69200
O1789       O  0.53745063  0.57782651  0.95822976    -0.88500
C1790       C  0.51483986  0.93153337  0.58447444     0.83700
C1791       C  0.90571606  0.91974978  0.54620379     1.05300
H1792       H  0.52232980  0.52006983  0.52212450     0.37100
O1793       O  0.49798894  0.51925775  0.00116589    -1.11200
O1794       O  0.96987495  0.50120459  0.91024005    -0.67800
Ni1795     Ni  0.51255646  0.98144420  0.95890978     1.26300
O1796       O  0.00064155  0.96917313  0.57529110    -0.68100
O1797       O  0.55386224  0.01499964  0.93523711    -0.80400
C1798       C  0.54302363  0.90042833  0.94494426     0.83100
O1799       O  0.53041113  0.93419636  0.92176742    -0.67500
Ni1800     Ni  0.48328797  0.57460831  0.98196167     1.27400
Ni1801     Ni  0.95594947  0.99160425  0.52983188     1.26100
H1802       H  0.94535523  0.95394798  0.96359274     0.37600
O1803       O  0.82178613  0.99966568  0.79506789    -0.82300
O1804       O  0.68560755  0.91613333  0.70120339    -0.67000
O1805       O  0.76749858  0.99502376  0.72465469    -1.13600
C1806       C  0.66701710  0.54661039  0.82321992     1.04600
O1807       O  0.64545009  0.97298459  0.68641547    -0.80200
O1808       O  0.64952687  0.54869082  0.70890065    -0.67800
Ni1809     Ni  0.82440104  0.97781536  0.73693809     1.34900
C1810       C  0.67798164  0.57300122  0.70552987     0.83300
O1811       O  0.76289257  0.92708929  0.66989640    -0.80800
O1812       O  0.82601195  0.95403027  0.67854307    -0.91000
C1813       C  0.65018304  0.93398206  0.68586902     0.82900
O1814       O  0.82044991  0.92554283  0.76574328    -0.69200
O1815       O  0.64098309  0.52854769  0.79721165    -0.88500
C1816       C  0.79113914  0.90407425  0.77634445     0.83700
C1817       C  0.79987853  0.93208419  0.65774995     1.05300
H1818       H  0.70091661  0.96445535  0.78576350     0.37100
O1819       O  0.70043107  0.98247971  0.75881483    -1.11200
O1820       O  0.71453727  0.56631788  0.72579780    -0.67800
Ni1821     Ni  0.73890397  0.52376575  0.77042492     1.26300
O1822       O  0.75320072  0.91334774  0.76144594    -0.68100
O1823       O  0.70603171  0.54879506  0.81632391    -0.80400
C1824       C  0.82027868  0.53921019  0.79510609     0.83100
O1825       O  0.78497812  0.55972162  0.78393872    -0.67500
Ni1826     Ni  0.64336957  0.49958935  0.74200963     1.27400
Ni1827     Ni  0.72952854  0.95359907  0.71392332     1.26100
H1828       H  0.76455511  0.51368712  0.69671217     0.37600
O1829       O  0.72926082  0.69142671  0.59636358    -0.82300
O1830       O  0.79914031  0.76879746  0.92959732    -0.67000
O1831       O  0.73287280  0.75222937  0.52963665    -1.13600
C1832       C  0.67203865  0.65636324  0.93117928     1.04600
O1833       O  0.73869436  0.77927688  0.88746766    -0.80200
O1834       O  0.66113909  0.75565443  0.90340804    -0.67800
Ni1835     Ni  0.75589806  0.74251687  0.59008009     1.34900
C1836       C  0.64340729  0.76724128  0.93819250     0.83300
O1837       O  0.79730128  0.80218532  0.51259021    -0.80800
O1838       O  0.78225527  0.79380987  0.58570215    -0.91000
C1839       C  0.77802398  0.78301880  0.89296181     0.82900
O1840       O  0.80784803  0.71174699  0.58156427    -0.69200
O1841       O  0.69027797  0.67389084  0.89946296    -0.88500
C1842       C  0.82756458  0.70326038  0.54722292     0.83700
C1843       C  0.79703455  0.81422003  0.55335578     1.05300
H1844       H  0.75641526  0.69217099  0.95617619     0.37100
O1845       O  0.73814181  0.71746284  0.95541730    -1.11200
O1846       O  0.65808990  0.75532894  0.97849689    -0.67800
Ni1847     Ni  0.70069284  0.71141423  0.50196602     1.26300
O1848       O  0.81438929  0.71722308  0.50683349    -0.68100
O1849       O  0.67072331  0.66996370  0.97120090    -0.80400
C1850       C  0.68953841  0.69044583  0.59136039     0.83100
O1851       O  0.66928824  0.70392813  0.55415834    -0.67500
Ni1852     Ni  0.71450828  0.72655878  0.89478847     1.27400
Ni1853     Ni  0.76940647  0.75924971  0.98277109     1.26100
H1854       H  0.71487186  0.77764043  0.52956188     0.37600
O1855       O  0.92244203  0.80043077  0.79853683    -0.82300
O1856       O  0.57703146  0.71937007  0.73500091    -0.67000
O1857       O  0.96962383  0.77396701  0.73123608    -1.13600
C1858       C  0.93625438  0.64129967  0.78475549     1.04600
O1859       O  0.54590726  0.67447180  0.69212497    -0.80200
O1860       O  0.96811619  0.65087425  0.68724273    -0.67800
Ni1861     Ni  0.95750907  0.82433928  0.75718770     1.34900
C1862       C  0.93908562  0.67652173  0.66973112     0.83300
O1863       O  0.55030934  0.80022939  0.71797878    -0.80800
O1864       O  0.99463812  0.84774021  0.71868814    -0.91000
C1865       C  0.57842748  0.69184972  0.70525254     0.82900
O1866       O  0.00004505  0.82370494  0.80452934    -0.69200
O1867       O  0.97364438  0.62976681  0.77499309    -0.88500
C1868       C  0.52987122  0.79808539  0.82030632     0.83700
C1869       C  0.53323364  0.83740343  0.71223884     1.05300
H1870       H  0.50653809  0.69912158  0.79048683     0.37100
O1871       O  0.49875558  0.70306673  0.75830844    -1.11200
O1872       O  0.92876363  0.71060484  0.68880400    -0.67800
Ni1873     Ni  0.94340533  0.72672483  0.75234216     1.26300
O1874       O  0.53993755  0.76452469  0.80060843    -0.68100
O1875       O  0.91880306  0.67786395  0.77531070    -0.80400
C1876       C  0.88976178  0.78468020  0.78331007     0.83100
O1877       O  0.89154812  0.75730377  0.75357024    -0.67500
Ni1878     Ni  0.51071471  0.65183897  0.73470838     1.27400
Ni1879     Ni  0.52518678  0.75024655  0.73731459     1.26100
H1880       H  0.96160051  0.77836861  0.69910639     0.37600
C1881       C  0.76608013  0.96646799  0.96661675    -0.14800
C1882       C  0.77225701  0.96517297  0.51293503     0.07400
C1883       C  0.75429533  0.49683725  0.53582186    -0.14800
C1884       C  0.72549801  0.52586295  0.01149737    -0.14800
C1885       C  0.71627039  0.52329947  0.96466324     0.07400
C1886       C  0.73778306  0.99646214  0.94337580    -0.14800
H1887       H  0.78258666  0.94330582  0.94769899     0.11400
H1888       H  0.75828134  0.49651334  0.57253991     0.11400
H1889       H  0.70611765  0.54704683  0.53155721     0.11400
H1890       H  0.73234665  0.99590191  0.90680964     0.11400
C1891       C  0.46269211  0.76738973  0.96831417    -0.14800
C1892       C  0.50530251  0.75790344  0.96125300     0.07400
C1893       C  0.02784666  0.72447290  0.98591503    -0.14800
C1894       C  0.00768145  0.70196648  0.51632589    -0.14800
C1895       C  0.96529917  0.71197563  0.52402973     0.07400
C1896       C  0.94318521  0.74433262  0.00010214    -0.14800
H1897       H  0.44478580  0.79343338  0.94986536     0.11400
H1898       H  0.06092556  0.71736328  0.98205123     0.11400
H1899       H  0.02570633  0.67614110  0.53502199     0.11400
H1900       H  0.91014990  0.75154750  0.00411840     0.11400
C1901       C  0.00821799  0.01469728  0.77909944    -0.14800
C1902       C  0.96880458  0.52638163  0.75505245     0.07400
C1903       C  0.96240839  0.52134201  0.70835247    -0.14800
C1904       C  0.49382838  0.50076883  0.68597474    -0.14800
C1905       C  0.53217409  0.98651679  0.71133979     0.07400
C1906       C  0.03997653  0.99534702  0.75670735    -0.14800
H1907       H  0.01324997  0.01673076  0.81550081     0.11400
H1908       H  0.93245590  0.53082355  0.68987839     0.11400
H1909       H  0.48668496  0.49261264  0.65139405     0.11400
H1910       H  0.56802987  0.98164271  0.77644602     0.11400
C1911       C  0.72263372  0.73968591  0.69496624    -0.14800
C1912       C  0.72488225  0.70232276  0.72129324     0.07400
C1913       C  0.73856923  0.70128090  0.76721000    -0.14800
C1914       C  0.74718936  0.73765268  0.78739670    -0.14800
C1915       C  0.74454946  0.77519191  0.76134890     0.07400
C1916       C  0.73161903  0.77608251  0.71511379    -0.14800
H1917       H  0.70995589  0.74168466  0.65998710     0.11400
H1918       H  0.73893101  0.67297027  0.78816919     0.11400
H1919       H  0.76000444  0.73541675  0.82225706     0.11400
H1920       H  0.73150948  0.80435543  0.69414150     0.11400
loop_ 
_geom_bond_atom_site_label_1 
_geom_bond_atom_site_label_2 
_geom_bond_distance 
_geom_bond_site_symmetry_2 
_ccdc_geom_bond_type 
C1            C2   1.511       .  S
C1            C7   1.514       .  S
C1            C5   1.532       .  S
C1          C196   1.481       .  S
C2            H9   1.087       .  S
C2            C3   1.370       .  D
C3            C4   1.561       .  S
C3          C136   1.488       .  S
C4            C8   1.529       .  S
C4            C6   1.562       .  S
C4           H10   1.111       .  S
C5           H11   1.086       .  S
C5            C6   1.368       .  D
C6          C159   1.491       .  S
C7           H12   1.089       .  S
C7            C8   1.347       .  D
C8          C235   1.442       .  S
C13          C14   1.546       .  S
C13          C19   1.549       .  S
C13          C17   1.562       .  S
C13         C144   1.522       .  S
C14          H21   1.086       .  S
C14          C15   1.357       .  D
C15          C16   1.499       .  S
C15         C104   1.452       .  S
C16          C20   1.506       .  S
C16          C18   1.527       .  S
C16          H22   1.111       .  S
C17          H23   1.085       .  S
C17          C18   1.391       .  D
C18         C178   1.490       .  S
C19          H24   1.086       .  S
C19          C20   1.361       .  D
C20         C222   1.455       .  S
C25          C26   1.553       .  S
C25          C31   1.531       .  S
C25          C29   1.526       .  S
C25         C118   1.537       .  S
C26          H33   1.085       .  S
C26          C27   1.377       .  D
C27          C28   1.548       .  S
C27         C156   1.495       .  S
C28          C32   1.539       .  S
C28          C30   1.549       .  S
C28          H34   1.111       .  S
C29          H35   1.086       .  S
C29          C30   1.386       .  D
C30         C188   1.490       .  S
C31          H36   1.086   1_455  S
C31          C32   1.351       .  D
C32         C212   1.475       .  S
C37          C38   1.514       .  S
C37          C43   1.508       .  S
C37          C41   1.542       .  S
C37         C185   1.487       .  S
C38          H45   1.089       .  S
C38          C39   1.349       .  D
C39          C40   1.525       .  S
C39         C232   1.439       .  S
C40          C44   1.547       .  S
C40          C42   1.553       .  S
C40          H46   1.111       .  S
C41          H47   1.086       .  S
C41          C42   1.375       .  D
C42         C170   1.486       .  S
C43          H48   1.088       .  S
C43          C44   1.365       .  D
C44         C130   1.470       .  S
C49          C50   1.532       .  S
C49          C55   1.536       .  S
C49          C53   1.532       .  S
C49         C163   1.510       .  S
C50          H57   1.087       .  S
C50          C51   1.359       .  D
C51          C52   1.544       .  S
C51         C137   1.472       .  S
C52          C56   1.544       .  S
C52          C54   1.534       .  S
C52          H58   1.111       .  S
C53          H59   1.087       .  S
C53          C54   1.363       .  D
C54         C202   1.467       .  S
C55          H60   1.086       .  S
C55          C56   1.378       .  D
C56         C111   1.489       .  S
C61          C62   1.527       .  S
C61          C67   1.551       .  S
C61          C65   1.535       .  S
C61         C107   1.537       .  S
C62          H69   1.086       .  S
C62          C63   1.351       .  D
C63          C64   1.544       .  S
C63         C215   1.477       .  S
C64          C68   1.555       .  S
C64          C66   1.556       .  S
C64          H70   1.111       .  S
C65          H71   1.085       .  S
C65          C66   1.392       .  D
C66         C182   1.508       .  S
C67          H72   1.086       .  S
C67          C68   1.373       .  D
C68         C162   1.501       .  S
C73          C74   1.533       .  S
C73          C79   1.542       .  S
C73          C77   1.528       .  S
C73         C100   1.512       .  S
C74          H81   1.087       .  S
C74          C75   1.372       .  D
C75          C76   1.539       .  S
C75         C126   1.487       .  S
C76          C80   1.545       .  S
C76          C78   1.532       .  S
C76          H82   1.111       .  S
C77          H83   1.087       .  S
C77          C78   1.358       .  D
C78         C205   1.462       .  S
C79          H84   1.086       .  S
C79          C80   1.373       .  D
C80         C152   1.478       .  S
C85          C86   1.504       .  S
C85          C91   1.537       .  S
C85          C89   1.551       .  S
C85         C189   1.506       .  S
C86          H93   1.090       .  S
C86          C87   1.349       .  D
C87          C88   1.526       .  S
C87         C110   1.468       .  S
C88          C92   1.511       .  S
C88          C90   1.567       .  S
C88          H94   1.112       .  S
C89          H95   1.085       .  S
C89          C90   1.392       .  D
C90         C133   1.494       .  S
C91          H96   1.088       .  S
C91          C92   1.356       .  D
C92         C225   1.445       .  S
O97         C118   1.254       .  A
O97       Ni1303   1.910   1_455  S
O98         C107   1.286       .  A
O98        Ni601   1.988   1_545  S
O99         H122   0.967       .  S
O99        Ni343   1.859       .  S
O99        Ni361   1.906       .  S
O99       Ni1075   1.918       .  S
C100        O109   1.286       .  A
C100        O597   1.290       .  A
O101        C107   1.260       .  A
O101      Ni1320   1.913   1_554  S
O102        C104   1.255       .  A
O102      Ni1080   1.864       .  S
Ni103       O106   1.918       .  S
Ni103      O1297   1.911   1_554  S
Ni103      O1068   1.836       .  S
Ni103       O339   1.859   1_554  S
C104        O114   1.276       .  A
O105        C111   1.294       .  A
O105       Ni121   1.959       .  S
O106        C111   1.285       .  A
O108        C110   1.254       .  A
O108      Ni1063   1.837   1_455  S
O109       Ni120   1.936   1_455  S
C110       O1076   1.278       .  A
H112        O353   0.966   1_455  S
O113        H352   0.966   1_655  S
O113       Ni120   1.873       .  S
O113      Ni1801   1.927   1_545  S
O113       Ni595   1.905   1_645  S
O114      Ni1555   1.944   1_545  S
Ni115       O119   1.991       .  S
Ni115       O117   1.936       .  S
Ni115      O1554   1.947   1_455  S
Ni115      O1059   1.918   1_455  S
Ni115       O593   1.905   1_455  S
O116       C1070   1.278       .  A
O116       Ni121   1.960       .  S
O117        C580   1.291       .  A
C118        O119   1.284       .  A
Ni120      O1301   1.911       .  S
Ni120      O1062   1.864       .  S
Ni121       O578   1.992       .  S
Ni121       O339   1.905   1_554  S
Ni121      O1793   1.924       .  S
O123        C624   1.257       .  A
O123       Ni129   1.892       .  S
O124        C133   1.274       .  A
O124       Ni147   1.955       .  S
O125        H628   0.966       .  S
O125       Ni129   1.867       .  S
O125       Ni147   1.902       .  S
O125       Ni621   1.925       .  S
C126        O143   1.291       .  A
C126        O135   1.283       .  A
O127        C133   1.262       .  A
O127       Ni626   1.909       .  S
O128        C130   1.260       .  A
O128       Ni146   1.865   1_545  S
Ni129       O132   1.922       .  S
Ni129       O134   1.881       .  S
C130        O140   1.271       .  A
O131        C137   1.288       .  A
O131       Ni147   1.934       .  S
O132        C137   1.280       .  A
O134        C136   1.264       .  A
O135       Ni146   1.919   1_545  S
C136        O142   1.270       .  A
H138        O139   0.966       .  S
O139       Ni147   1.914       .  S
O139       Ni621   1.918       .  S
O139       Ni626   1.867       .  S
O140       Ni141   1.939       .  S
Ni141       O145   1.977       .  S
Ni141       O143   1.948       .  S
Ni141       O605   1.927   1_545  S
Ni141       O619   1.917   1_545  S
O142       Ni147   1.945       .  S
C144        O145   1.276       .  A
C144        O603   1.257   1_545  A
Ni146       O607   1.908       .  S
Ni146       O619   1.867       .  S
H148        O605   0.966   1_545  S
O149        C170   1.274       .  A
O149       Ni155   1.932       .  S
O150        C159   1.278       .  A
O150       Ni173   1.928       .  S
O151        H174   0.966       .  S
O151       Ni155   1.885       .  S
O151       Ni167   1.912       .  S
O151       Ni413   1.895   1_554  S
C152        O169   1.283       .  A
C152        O161   1.281       .  A
O153        C159   1.275       .  A
O153       Ni172   1.944       .  S
O154        C156   1.269       .  A
O154       Ni172   1.918       .  S
Ni155       O158   1.925       .  S
Ni155       O160   1.910       .  S
C156        O166   1.280       .  A
O157        C163   1.282       .  A
O157       Ni413   1.926   1_554  S
O158        C163   1.283       .  A
O160        C162   1.267       .  A
O161       Ni172   1.934       .  S
C162        O168   1.287       .  A
H164        O165   0.966       .  S
O165       Ni173   1.914       .  S
O165       Ni172   1.894       .  S
O165       Ni407   1.902       .  S
O166       Ni407   1.962       .  S
Ni167       O171   1.932       .  S
Ni167       O406   1.963   1_554  S
Ni167       O409   1.934   1_554  S
Ni167       O405   1.902   1_554  S
O168       Ni413   1.979   1_554  S
O169       Ni407   1.934       .  S
C170        O171   1.277       .  A
Ni173       O397   1.927       .  S
Ni173       O408   1.977       .  S
Ni173       O391   1.896       .  S
O175        C196   1.262       .  A
O175       Ni181   1.908       .  S
O176        C185   1.277       .  A
O176       Ni199   1.874       .  S
O177        H200   0.967       .  S
O177       Ni181   1.858       .  S
O177       Ni193   1.908       .  S
O177      Ni1159   1.876       .  S
C178        O195   1.278       .  A
C178        O187   1.286       .  A
O179        C185   1.268       .  A
O179       Ni198   1.922       .  S
O180        C182   1.261       .  A
O180      Ni1158   1.879       .  S
Ni181       O184   1.888       .  S
Ni181       O186   1.876       .  S
C182        O192   1.290       .  A
O183        C189   1.281       .  A
O183       Ni199   1.954       .  S
O184       C1149   1.283       .  A
O186       C1148   1.260       .  A
O187      Ni1158   1.911       .  S
C188        O194   1.283       .  A
C188       O1146   1.260       .  A
C189       O1144   1.283   1_455  A
H190        O191   0.966   1_455  S
O191       Ni199   1.912   1_655  S
O191       Ni198   1.852   1_655  S
O191      Ni1153   1.871       .  S
O192       Ni193   1.996       .  S
Ni193       O197   1.873       .  S
Ni193       O195   1.943       .  S
Ni193      O1151   1.871       .  S
O194       Ni199   1.972       .  S
C196        O197   1.276       .  A
Ni198      O1140   1.879   1_455  S
Ni198      O1147   1.911   1_455  S
Ni199      O1137   1.876   1_455  S
C201        C206   1.394       .  A
C201        C442   1.404       .  A
C201        H207   1.083       .  S
C202        C441   1.405   1_554  A
C202        C683   1.400       .  A
C203        C682   1.400       .  A
C203        C444   1.394   1_565  A
C203        H208   1.084       .  S
C204        C205   1.402       .  A
C204        C443   1.393   1_545  A
C204        H449   1.084       .  S
C205        C686   1.399   1_545  A
C206        C685   1.399       .  A
C206        H210   1.084       .  S
H209        C444   1.084       .  S
C211        C212   1.408   1_655  A
C211       C1176   1.395       .  A
C211        H217   1.083       .  S
C212       C1173   1.399       .  A
C213       C1172   1.399       .  A
C213        C454   1.397       .  A
C213        H218   1.084       .  S
C214        C215   1.411       .  A
C214        C453   1.397   1_554  A
C214        H219   1.084       .  S
C215        C456   1.398       .  A
C216       C1171   1.395       .  A
C216        C455   1.398       .  A
C216        H220   1.083       .  S
C221        C226   1.383       .  A
C221        C702   1.405       .  A
C221        H227   1.082       .  S
C222        C223   1.398       .  A
C222        C701   1.404       .  A
C223       C1184   1.387       .  A
C223        H228   1.083       .  S
C224       C1183   1.387       .  A
C224        C705   1.400   1_645  A
C224        H229   1.079   1_545  S
C225        C704   1.399   1_455  A
C225       C1186   1.394       .  A
C226       C1185   1.394       .  A
C226       H1190   1.084       .  S
H230       C1186   1.084       .  S
C231        C232   1.405       .  A
C231        C236   1.384       .  A
C231        H237   1.080       .  S
C232        C233   1.394       .  A
C233        C234   1.382       .  A
C233        H238   1.084       .  S
C234        C235   1.406       .  A
C234        H239   1.078       .  S
C235        C236   1.396       .  A
C236        H240   1.084       .  S
C241        C242   1.510       .  S
C241        C247   1.514       .  S
C241        C245   1.534       .  S
C241        C436   1.482       .  S
C242        H249   1.087       .  S
C242        C243   1.369       .  D
C243        C244   1.561       .  S
C243        C376   1.488       .  S
C244        C248   1.527       .  S
C244        C246   1.563       .  S
C244        H250   1.111       .  S
C245        H251   1.086       .  S
C245        C246   1.370       .  D
C246        C399   1.493       .  S
C247        H252   1.089       .  S
C247        C248   1.347       .  D
C248        C475   1.440       .  S
C253        C254   1.545       .  S
C253        C259   1.550       .  S
C253        C257   1.561       .  S
C253        C384   1.521       .  S
C254        H261   1.086       .  S
C254        C255   1.356       .  D
C255        C256   1.500       .  S
C255        C344   1.452       .  S
C256        C260   1.506       .  S
C256        C258   1.527       .  S
C256        H262   1.112       .  S
C257        H263   1.085       .  S
C257        C258   1.390       .  D
C258        C418   1.490       .  S
C259        H264   1.086       .  S
C259        C260   1.361       .  D
C260        C462   1.456       .  S
C265        C266   1.554       .  S
C265        C271   1.530       .  S
C265        C269   1.527       .  S
C265        C358   1.537       .  S
C266        H273   1.085       .  S
C266        C267   1.377       .  D
C267        C268   1.549       .  S
C267        C396   1.497       .  S
C268        C272   1.540       .  S
C268        C270   1.550       .  S
C268        H274   1.111       .  S
C269        H275   1.086       .  S
C269        C270   1.387       .  D
C270        C428   1.492       .  S
C271        H276   1.086   1_455  S
C271        C272   1.351       .  D
C272        C452   1.476       .  S
C277        C278   1.513       .  S
C277        C283   1.509       .  S
C277        C281   1.542       .  S
C277        C425   1.487       .  S
C278        H285   1.089       .  S
C278        C279   1.348       .  D
C279        C280   1.525       .  S
C279        C472   1.438       .  S
C280        C284   1.547       .  S
C280        C282   1.553       .  S
C280        H286   1.111       .  S
C281        H287   1.086       .  S
C281        C282   1.375       .  D
C282        C410   1.486       .  S
C283        H288   1.088       .  S
C283        C284   1.366       .  D
C284        C370   1.470       .  S
C289        C290   1.534       .  S
C289        C295   1.535       .  S
C289        C293   1.533       .  S
C289        C403   1.512       .  S
C290        H297   1.087       .  S
C290        C291   1.359       .  D
C291        C292   1.543       .  S
C291        C377   1.473       .  S
C292        C296   1.544       .  S
C292        C294   1.532       .  S
C292        H298   1.111       .  S
C293        H299   1.087       .  S
C293        C294   1.363       .  D
C294        C442   1.465       .  S
C295        H300   1.086       .  S
C295        C296   1.378       .  D
C296        C351   1.488       .  S
C301        C302   1.528       .  S
C301        C307   1.551       .  S
C301        C305   1.534       .  S
C301        C347   1.538       .  S
C302        H309   1.086       .  S
C302        C303   1.351       .  D
C303        C304   1.543       .  S
C303        C455   1.475       .  S
C304        C308   1.553       .  S
C304        C306   1.555       .  S
C304        H310   1.111       .  S
C305        H311   1.085       .  S
C305        C306   1.392       .  D
C306        C422   1.507       .  S
C307        H312   1.086       .  S
C307        C308   1.373       .  D
C308        C402   1.499       .  S
C313        C314   1.533       .  S
C313        C319   1.543       .  S
C313        C317   1.527       .  S
C313        C340   1.513       .  S
C314        H321   1.087       .  S
C314        C315   1.373       .  D
C315        C316   1.540       .  S
C315        C366   1.488       .  S
C316        C320   1.546       .  S
C316        C318   1.533       .  S
C316        H322   1.111       .  S
C317        H323   1.088       .  S
C317        C318   1.358       .  D
C318        C445   1.463       .  S
C319        H324   1.086       .  S
C319        C320   1.374       .  D
C320        C392   1.479       .  S
C325        C326   1.504       .  S
C325        C331   1.537       .  S
C325        C329   1.550       .  S
C325        C429   1.506       .  S
C326        H333   1.090       .  S
C326        C327   1.349       .  D
C327        C328   1.525       .  S
C327        C350   1.466       .  S
C328        C332   1.512       .  S
C328        C330   1.568       .  S
C328        H334   1.112       .  S
C329        H335   1.085       .  S
C329        C330   1.392       .  D
C330        C373   1.493       .  S
C331        H336   1.088       .  S
C331        C332   1.356       .  D
C332        C465   1.446       .  S
O337        C358   1.255       .  A
O337      Ni1063   1.911   1_456  S
O338        C347   1.286       .  A
O338       Ni841   1.990   1_545  S
O339        H362   0.967       .  S
O339      Ni1315   1.920       .  S
C340        O837   1.291       .  A
C340        O349   1.286       .  A
O341        C347   1.260       .  A
O341      Ni1080   1.911       .  S
O342        C344   1.255       .  A
O342      Ni1320   1.864       .  S
Ni343      O1057   1.910       .  S
Ni343       O346   1.915       .  S
Ni343      O1308   1.835       .  S
C344        O354   1.276       .  A
O345        C351   1.294       .  A
O345       Ni361   1.958       .  S
O346        C351   1.285       .  A
O348        C350   1.253       .  A
O348      Ni1303   1.835   1_455  S
O349       Ni360   1.935   1_455  S
C350       O1316   1.277       .  A
O353      Ni1561   1.927   1_545  S
O353       Ni835   1.905   1_644  S
O353       Ni360   1.873   1_554  S
O354      Ni1795   1.944   1_545  S
Ni355      O1794   1.949   1_455  S
Ni355       O359   1.991       .  S
Ni355       O357   1.938       .  S
Ni355      O1299   1.920   1_455  S
Ni355       O833   1.903   1_456  S
O356       C1310   1.278       .  A
O356       Ni361   1.959       .  S
O357        C820   1.292       .  A
C358        O359   1.284       .  A
Ni360      O1061   1.912   1_556  S
Ni360      O1302   1.864       .  S
Ni361       O818   1.993       .  S
Ni361      O1553   1.922       .  S
O363        C864   1.257       .  A
O363       Ni369   1.893       .  S
O364        C373   1.274       .  A
O364       Ni387   1.955       .  S
O365        H868   0.966       .  S
O365       Ni369   1.866       .  S
O365       Ni387   1.902       .  S
O365       Ni861   1.926       .  S
C366        O383   1.291       .  A
C366        O375   1.283       .  A
O367        C373   1.262       .  A
O367       Ni866   1.909       .  S
O368        C370   1.260       .  A
O368       Ni386   1.866   1_545  S
Ni369       O372   1.922       .  S
Ni369       O374   1.881       .  S
C370        O380   1.271       .  A
O371        C377   1.288       .  A
O371       Ni387   1.937       .  S
O372        C377   1.280       .  A
O374        C376   1.264       .  A
O375       Ni386   1.920   1_545  S
C376        O382   1.270       .  A
H378        O379   0.966       .  S
O379       Ni387   1.916       .  S
O379       Ni861   1.916       .  S
O379       Ni866   1.866       .  S
O380       Ni381   1.939       .  S
Ni381       O385   1.976       .  S
Ni381       O383   1.949       .  S
Ni381       O845   1.928   1_545  S
Ni381       O859   1.917   1_545  S
O382       Ni387   1.945       .  S
C384        O843   1.257   1_545  A
C384        O385   1.276       .  A
Ni386       O847   1.908       .  S
Ni386       O859   1.866       .  S
H388        O845   0.967   1_545  S
O389        C410   1.274       .  A
O389       Ni395   1.932       .  S
O390        C399   1.279       .  A
O390       Ni413   1.930       .  S
O391        H414   0.966       .  S
O391       Ni395   1.885       .  S
O391       Ni407   1.911       .  S
C392        O409   1.283       .  A
C392        O401   1.282       .  A
O393        C399   1.276       .  A
O393       Ni412   1.945       .  S
O394        C396   1.269       .  A
O394       Ni412   1.919       .  S
Ni395       O398   1.926       .  S
Ni395       O400   1.909       .  S
C396        O406   1.280       .  A
O397        C403   1.282       .  A
O398        C403   1.283       .  A
O400        C402   1.266       .  A
O401       Ni412   1.936       .  S
C402        O408   1.286       .  A
H404        O405   0.966       .  S
O405       Ni413   1.915       .  S
O405       Ni412   1.893       .  S
Ni407       O411   1.931       .  S
C410        O411   1.277       .  A
O415        C436   1.263       .  A
O415       Ni421   1.910       .  S
O416        C425   1.277       .  A
O416       Ni439   1.874       .  S
O417        H440   0.967       .  S
O417       Ni421   1.858       .  S
O417      Ni1399   1.877       .  S
O417       Ni433   1.908       .  S
C418        O435   1.278       .  A
C418        O427   1.286       .  A
O419        C425   1.268       .  A
O419       Ni438   1.922       .  S
O420        C422   1.260       .  A
O420      Ni1398   1.876       .  S
Ni421       O424   1.889       .  S
Ni421       O426   1.876       .  S
C422        O432   1.290       .  A
O423        C429   1.281       .  A
O423       Ni439   1.954       .  S
O424       C1389   1.283       .  A
O426       C1388   1.260       .  A
O427      Ni1398   1.911       .  S
C428       O1386   1.260       .  A
C428        O434   1.283       .  A
C429       O1384   1.283   1_455  A
H430        O431   0.966   1_455  S
O431       Ni439   1.911   1_655  S
O431      Ni1393   1.872       .  S
O431       Ni438   1.853   1_655  S
O432       Ni433   1.996       .  S
Ni433       O437   1.874       .  S
Ni433       O435   1.942       .  S
Ni433      O1391   1.872       .  S
O434       Ni439   1.973       .  S
C436        O437   1.276       .  A
Ni438      O1380   1.876   1_455  S
Ni438      O1387   1.911   1_455  S
Ni439      O1377   1.877   1_455  S
C441        C446   1.394       .  A
C441        H447   1.084       .  S
C442        C923   1.400       .  A
C443        C922   1.399       .  A
C443        H448   1.084       .  S
C444        C445   1.403   1_554  A
C445        C926   1.399   1_545  A
C446        C925   1.399       .  A
C446        H450   1.084       .  S
C451        C452   1.409   1_655  A
C451       C1416   1.395       .  A
C451        H457   1.083       .  S
C452       C1413   1.399       .  A
C453       C1412   1.399       .  A
C453        H458   1.084       .  S
C454        C455   1.410       .  A
C454        H459   1.084       .  S
C456       C1411   1.395   1_554  A
C456        H460   1.083       .  S
C461        C942   1.405       .  A
C461        C466   1.383       .  A
C461        H467   1.082       .  S
C462        C941   1.404       .  A
C462        C463   1.398       .  A
C463       C1424   1.387       .  A
C463        H468   1.083       .  S
C464       C1423   1.387       .  A
C464        C945   1.400   1_645  A
C464        H469   1.079   1_545  S
C465        C944   1.400   1_455  A
C465       C1426   1.394       .  A
C466       C1425   1.394       .  A
C466       H1430   1.084       .  S
H470       C1426   1.084       .  S
C471        C472   1.405       .  A
C471        C476   1.384       .  A
C471        H477   1.080       .  S
C472        C473   1.394       .  A
C473        C474   1.381       .  A
C473        H478   1.084       .  S
C474        C475   1.406       .  A
C474        H479   1.078       .  S
C475        C476   1.396       .  A
C476        H480   1.084       .  S
C481        C482   1.510       .  S
C481        C487   1.513       .  S
C481        C485   1.531       .  S
C481        C676   1.478       .  S
C482        H489   1.087       .  S
C482        C483   1.369       .  D
C483        C484   1.559       .  S
C483        C616   1.486       .  S
C484        C488   1.529       .  S
C484        C486   1.563       .  S
C484        H490   1.111       .  S
C485        H491   1.086       .  S
C485        C486   1.368       .  D
C486        C639   1.489       .  S
C487        H492   1.089       .  S
C487        C488   1.348       .  D
C488        C715   1.441       .  S
C493        C494   1.547       .  S
C493        C499   1.551       .  S
C493        C497   1.560       .  S
C493        C624   1.525       .  S
C494        H501   1.086       .  S
C494        C495   1.358       .  D
C495        C496   1.500       .  S
C495        C584   1.455       .  S
C496        C500   1.506       .  S
C496        C498   1.528       .  S
C496        H502   1.111       .  S
C497        H503   1.085       .  S
C497        C498   1.390       .  D
C498        C658   1.489       .  S
C499        H504   1.086       .  S
C499        C500   1.363       .  D
C500        C702   1.460       .  S
C505        C506   1.556       .  S
C505        C511   1.530       .  S
C505        C509   1.531       .  S
C505        C598   1.542       .  S
C506        H513   1.085       .  S
C506        C507   1.379       .  D
C507        C508   1.549       .  S
C507        C636   1.502       .  S
C508        C512   1.539       .  S
C508        C510   1.546       .  S
C508        H514   1.111       .  S
C509        H515   1.086       .  S
C509        C510   1.388       .  D
C510        C668   1.492       .  S
C511        H516   1.085   1_455  S
C511        C512   1.351       .  D
C512        C692   1.474       .  S
C517        C518   1.512       .  S
C517        C523   1.512       .  S
C517        C521   1.542       .  S
C517        C665   1.489       .  S
C518        H525   1.089       .  S
C518        C519   1.349       .  D
C519        C520   1.522       .  S
C519        C712   1.437       .  S
C520        C524   1.543       .  S
C520        C522   1.549       .  S
C520        H526   1.111       .  S
C521        H527   1.086       .  S
C521        C522   1.376       .  D
C522        C650   1.481       .  S
C523        H528   1.088       .  S
C523        C524   1.367       .  D
C524        C610   1.469       .  S
C529        C530   1.536       .  S
C529        C535   1.535       .  S
C529        C533   1.532       .  S
C529        C643   1.516       .  S
C530        H537   1.087       .  S
C530        C531   1.361       .  D
C531        C532   1.544       .  S
C531        C617   1.474       .  S
C532        C536   1.545       .  S
C532        C534   1.534       .  S
C532        H538   1.111       .  S
C533        H539   1.087       .  S
C533        C534   1.362       .  D
C534        C682   1.466       .  S
C535        H540   1.086       .  S
C535        C536   1.379       .  D
C536        C591   1.491       .  S
C541        C542   1.527       .  S
C541        C547   1.554       .  S
C541        C545   1.537       .  S
C541        C587   1.543       .  S
C542        H549   1.086       .  S
C542        C543   1.351       .  D
C543        C544   1.544       .  S
C543        C695   1.477       .  S
C544        C548   1.554       .  S
C544        C546   1.558       .  S
C544        H550   1.111       .  S
C545        H551   1.085       .  S
C545        C546   1.393       .  D
C546        C662   1.513       .  S
C547        H552   1.086       .  S
C547        C548   1.375       .  D
C548        C642   1.504       .  S
C553        C554   1.531       .  S
C553        C559   1.543       .  S
C553        C557   1.530       .  S
C553        C580   1.512       .  S
C554        H561   1.087       .  S
C554        C555   1.372       .  D
C555        C556   1.539       .  S
C555        C606   1.486       .  S
C556        C560   1.544       .  S
C556        C558   1.531       .  S
C556        H562   1.111       .  S
C557        H563   1.087       .  S
C557        C558   1.360       .  D
C558        C685   1.463       .  S
C559        H564   1.086       .  S
C559        C560   1.371       .  D
C560        C632   1.477       .  S
C565        C566   1.503       .  S
C565        C571   1.534       .  S
C565        C569   1.550       .  S
C565        C669   1.503       .  S
C566        H573   1.090       .  S
C566        C567   1.349       .  D
C567        C568   1.528       .  S
C567        C590   1.470       .  S
C568        C572   1.512       .  S
C568        C570   1.569       .  S
C568        H574   1.111       .  S
C569        H575   1.085       .  S
C569        C570   1.392       .  D
C570        C613   1.494       .  S
C571        H576   1.089       .  S
C571        C572   1.356       .  D
C572        C705   1.444       .  S
O577        C598   1.256       .  A
O577      Ni1783   1.913   1_455  S
O578        C587   1.287       .  A
O579        H602   0.967       .  S
O579       Ni823   1.858       .  S
O579       Ni841   1.903       .  S
O579      Ni1555   1.917       .  S
C580        O589   1.285       .  A
O581        C587   1.261       .  A
O581      Ni1800   1.914   1_554  S
O582        C584   1.255       .  A
O582      Ni1560   1.865       .  S
Ni583      O1777   1.913   1_554  S
Ni583       O586   1.914       .  S
Ni583      O1548   1.840       .  S
Ni583       O819   1.858   1_554  S
C584        O594   1.277       .  A
O585        C591   1.296       .  A
O585       Ni601   1.966       .  S
O586        C591   1.284       .  A
O588        C590   1.255       .  A
O588      Ni1543   1.840   1_455  S
O589       Ni600   1.931   1_455  S
C590       O1556   1.277       .  A
H592        O833   0.966   1_455  S
O593        H832   0.966   1_655  S
O593      Ni1321   1.922       .  S
O593       Ni600   1.870       .  S
O594      Ni1075   1.947       .  S
Ni595      O1074   1.944   1_465  S
Ni595       O599   1.991       .  S
Ni595       O597   1.932   1_565  S
Ni595      O1539   1.917   1_455  S
O596       C1550   1.278       .  A
O596       Ni601   1.961       .  S
C598        O599   1.284       .  A
Ni600      O1781   1.914       .  S
Ni600      O1542   1.865       .  S
Ni601       O819   1.903   1_554  S
Ni601      O1313   1.928   1_565  S
O603       Ni609   1.894       .  S
O604        C613   1.274       .  A
O604       Ni627   1.956       .  S
O605       Ni609   1.867       .  S
O605       Ni627   1.904       .  S
C606        O623   1.291       .  A
C606        O615   1.283       .  A
O607        C613   1.261       .  A
O608        C610   1.260       .  A
O608       Ni626   1.865       .  S
Ni609       O612   1.926       .  S
Ni609       O614   1.878       .  S
C610        O620   1.273       .  A
O611        C617   1.287       .  A
O611       Ni627   1.934       .  S
O612        C617   1.281       .  A
O614        C616   1.264       .  A
O615       Ni626   1.918       .  S
C616        O622   1.270       .  A
H618        O619   0.966       .  S
O619       Ni627   1.916       .  S
O620       Ni621   1.942       .  S
Ni621       O625   1.982       .  S
Ni621       O623   1.947       .  S
O622       Ni627   1.944       .  S
C624        O625   1.279       .  A
O629        C650   1.274       .  A
O629       Ni635   1.931       .  S
O630        C639   1.279       .  A
O630       Ni653   1.929       .  S
O631        H654   0.966       .  S
O631       Ni635   1.883       .  S
O631       Ni893   1.893   1_554  S
O631       Ni647   1.913       .  S
C632        O649   1.283       .  A
C632        O641   1.280       .  A
O633        C639   1.274       .  A
O633       Ni652   1.939       .  S
O634        C636   1.269       .  A
O634       Ni652   1.923       .  S
Ni635       O638   1.928       .  S
Ni635       O640   1.910       .  S
C636        O646   1.280       .  A
O637        C643   1.284       .  A
O637       Ni893   1.932   1_554  S
O638        C643   1.283       .  A
O640        C642   1.266       .  A
O641       Ni652   1.932       .  S
C642        O648   1.288       .  A
H644        O645   0.966       .  S
O645       Ni653   1.917       .  S
O645       Ni887   1.899       .  S
O645       Ni652   1.894       .  S
O646       Ni887   1.966       .  S
Ni647       O886   1.965   1_554  S
Ni647       O651   1.923       .  S
Ni647       O889   1.938   1_554  S
Ni647       O885   1.899   1_554  S
O648       Ni893   1.985   1_554  S
O649       Ni887   1.937       .  S
C650        O651   1.274       .  A
Ni653       O877   1.932       .  S
Ni653       O888   1.982       .  S
Ni653       O871   1.894       .  S
O655        C676   1.263       .  A
O655       Ni661   1.909       .  S
O656        C665   1.279       .  A
O656       Ni679   1.880       .  S
O657        H680   0.967       .  S
O657       Ni661   1.858       .  S
O657      Ni1639   1.876       .  S
O657       Ni673   1.910       .  S
C658        O675   1.278       .  A
C658        O667   1.286       .  A
O659        C665   1.267       .  A
O659       Ni678   1.919       .  S
O660        C662   1.261       .  A
O660      Ni1638   1.882       .  S
Ni661       O664   1.891       .  S
Ni661       O666   1.877       .  S
C662        O672   1.291       .  A
O663        C669   1.280       .  A
O663       Ni679   1.948       .  S
O664       C1629   1.285       .  A
O666       C1628   1.260       .  A
O667      Ni1638   1.908       .  S
C668       O1626   1.260       .  A
C668        O674   1.285       .  A
C669       O1624   1.285   1_455  A
H670        O671   0.966   1_455  S
O671       Ni679   1.910   1_655  S
O671      Ni1633   1.868       .  S
O671       Ni678   1.850   1_655  S
O672       Ni673   2.001       .  S
Ni673       O677   1.872       .  S
Ni673       O675   1.944       .  S
Ni673      O1631   1.868       .  S
O674       Ni679   1.977       .  S
C676        O677   1.276       .  A
Ni678      O1620   1.882   1_455  S
Ni678      O1627   1.908   1_455  S
Ni679      O1617   1.875   1_455  S
C681        C922   1.403       .  A
C681        C686   1.394       .  A
C681        H687   1.083       .  S
C682        C921   1.404   1_554  A
C683        C924   1.394       .  A
C683        H688   1.083       .  S
C684        C923   1.393       .  A
C684        C685   1.402       .  A
C684        H929   1.084       .  S
C686        H690   1.084       .  S
H689        C924   1.083       .  S
C691        C692   1.410   1_655  A
C691       C1656   1.397       .  A
C691        H697   1.084       .  S
C692       C1653   1.397       .  A
C693       C1652   1.397       .  A
C693        C934   1.394       .  A
C693        H698   1.084       .  S
C694        C933   1.395   1_554  A
C694        C695   1.410       .  A
C694        H699   1.083       .  S
C695        C936   1.399       .  A
C696       C1651   1.397       .  A
C696        C935   1.399       .  A
C696        H700   1.083       .  S
C701        C706   1.380   1_545  A
C701        H707   1.082       .  S
C702        C703   1.399       .  A
C703       C1664   1.387       .  A
C703        H708   1.083       .  S
C704       C1663   1.387       .  A
C704        H709   1.079       .  S
C705       C1666   1.394       .  A
C706       C1665   1.394       .  A
C706       H1670   1.084       .  S
H710       C1666   1.084       .  S
C711        C712   1.405       .  A
C711        C716   1.383       .  A
C711        H717   1.079       .  S
C712        C713   1.393       .  A
C713        C714   1.380       .  A
C713        H718   1.084       .  S
C714        C715   1.405       .  A
C714        H719   1.077       .  S
C715        C716   1.397       .  A
C716        H720   1.084       .  S
C721        C722   1.509       .  S
C721        C727   1.513       .  S
C721        C725   1.531       .  S
C721        C916   1.477       .  S
C722        H729   1.088       .  S
C722        C723   1.368       .  D
C723        C724   1.562       .  S
C723        C856   1.487       .  S
C724        C728   1.529       .  S
C724        C726   1.565       .  S
C724        H730   1.110       .  S
C725        H731   1.086       .  S
C725        C726   1.368       .  D
C726        C879   1.492       .  S
C727        H732   1.089       .  S
C727        C728   1.347       .  D
C728        C955   1.441       .  S
C733        C734   1.547       .  S
C733        C739   1.550       .  S
C733        C737   1.561       .  S
C733        C864   1.526       .  S
C734        H741   1.086       .  S
C734        C735   1.359       .  D
C735        C736   1.501       .  S
C735        C824   1.458       .  S
C736        C740   1.508       .  S
C736        C738   1.529       .  S
C736        H742   1.111       .  S
C737        H743   1.085       .  S
C737        C738   1.390       .  D
C738        C898   1.491       .  S
C739        H744   1.086       .  S
C739        C740   1.363       .  D
C740        C942   1.461       .  S
C745        C746   1.557       .  S
C745        C751   1.530       .  S
C745        C749   1.531       .  S
C745        C838   1.544       .  S
C746        H753   1.085       .  S
C746        C747   1.380       .  D
C747        C748   1.549       .  S
C747        C876   1.504       .  S
C748        C752   1.541       .  S
C748        C750   1.547       .  S
C748        H754   1.111       .  S
C749        H755   1.086       .  S
C749        C750   1.388       .  D
C750        C908   1.493       .  S
C751        H756   1.086   1_455  S
C751        C752   1.351       .  D
C752        C932   1.476       .  S
C757        C758   1.512       .  S
C757        C763   1.511       .  S
C757        C761   1.542       .  S
C757        C905   1.488       .  S
C758        H765   1.089       .  S
C758        C759   1.349       .  D
C759        C760   1.523       .  S
C759        C952   1.438       .  S
C760        C764   1.544       .  S
C760        C762   1.550       .  S
C760        H766   1.111       .  S
C761        H767   1.086       .  S
C761        C762   1.375       .  D
C762        C890   1.483       .  S
C763        H768   1.088       .  S
C763        C764   1.367       .  D
C764        C850   1.469       .  S
C769        C770   1.536       .  S
C769        C775   1.536       .  S
C769        C773   1.532       .  S
C769        C883   1.516       .  S
C770        H777   1.087       .  S
C770        C771   1.360       .  D
C771        C772   1.542       .  S
C771        C857   1.473       .  S
C772        C776   1.543       .  S
C772        C774   1.533       .  S
C772        H778   1.111       .  S
C773        H779   1.087       .  S
C773        C774   1.362       .  D
C774        C922   1.465       .  S
C775        H780   1.086       .  S
C775        C776   1.380       .  D
C776        C831   1.490       .  S
C781        C782   1.526       .  S
C781        C787   1.553       .  S
C781        C785   1.537       .  S
C781        C827   1.544       .  S
C782        H789   1.086       .  S
C782        C783   1.351       .  D
C783        C784   1.544       .  S
C783        C935   1.477       .  S
C784        C788   1.554       .  S
C784        C786   1.559       .  S
C784        H790   1.111       .  S
C785        H791   1.085       .  S
C785        C786   1.393       .  D
C786        C902   1.515       .  S
C787        H792   1.086       .  S
C787        C788   1.375       .  D
C788        C882   1.503       .  S
C793        C794   1.533       .  S
C793        C799   1.544       .  S
C793        C797   1.530       .  S
C793        C820   1.515       .  S
C794        H801   1.087       .  S
C794        C795   1.373       .  D
C795        C796   1.539       .  S
C795        C846   1.487       .  S
C796        C800   1.545       .  S
C796        C798   1.531       .  S
C796        H802   1.111       .  S
C797        H803   1.087       .  S
C797        C798   1.360       .  D
C798        C925   1.462       .  S
C799        H804   1.086       .  S
C799        C800   1.372       .  D
C800        C872   1.481       .  S
C805        C806   1.503       .  S
C805        C811   1.535       .  S
C805        C809   1.551       .  S
C805        C909   1.505       .  S
C806        H813   1.090       .  S
C806        C807   1.350       .  D
C807        C808   1.527       .  S
C807        C830   1.469       .  S
C808        C812   1.511       .  S
C808        C810   1.568       .  S
C808        H814   1.111       .  S
C809        H815   1.085       .  S
C809        C810   1.392       .  D
C810        C853   1.496       .  S
C811        H816   1.088       .  S
C811        C812   1.356       .  D
C812        C945   1.445       .  S
O817        C838   1.256       .  A
O817      Ni1543   1.913   1_456  S
O818        C827   1.287       .  A
O819        H842   0.966       .  S
O819      Ni1795   1.918       .  S
C820        O829   1.285       .  A
O821        C827   1.260       .  A
O821      Ni1560   1.914       .  S
O822        C824   1.256       .  A
O822      Ni1800   1.868       .  S
Ni823      O1537   1.913       .  S
Ni823       O826   1.914       .  S
Ni823      O1788   1.839       .  S
C824        O834   1.277       .  A
O825        C831   1.296       .  A
O825       Ni841   1.964       .  S
O826        C831   1.284       .  A
O828        C830   1.254       .  A
O828      Ni1783   1.839   1_455  S
O829       Ni840   1.933   1_455  S
C830       O1796   1.278       .  A
O833      Ni1081   1.924       .  S
O833       Ni840   1.870   1_554  S
O834      Ni1315   1.949       .  S
Ni835      O1314   1.944   1_465  S
Ni835       O839   1.994       .  S
Ni835       O837   1.934   1_565  S
Ni835      O1779   1.917   1_455  S
O836       C1790   1.278       .  A
O836       Ni841   1.960       .  S
C838        O839   1.286       .  A
Ni840      O1541   1.914   1_556  S
Ni840      O1782   1.868       .  S
Ni841      O1073   1.927   1_565  S
O843       Ni849   1.892       .  S
O844        C853   1.274       .  A
O844       Ni867   1.958       .  S
O845       Ni849   1.868       .  S
O845       Ni867   1.904       .  S
C846        O863   1.291       .  A
C846        O855   1.284       .  A
O847        C853   1.261       .  A
O848        C850   1.260       .  A
O848       Ni866   1.866       .  S
Ni849       O852   1.923       .  S
Ni849       O854   1.882       .  S
C850        O860   1.273       .  A
O851        C857   1.287       .  A
O851       Ni867   1.935       .  S
O852        C857   1.280       .  A
O854        C856   1.265       .  A
O855       Ni866   1.920       .  S
C856        O862   1.270       .  A
H858        O859   0.967       .  S
O859       Ni867   1.915       .  S
O860       Ni861   1.941       .  S
Ni861       O865   1.981       .  S
Ni861       O863   1.947       .  S
O862       Ni867   1.943       .  S
C864        O865   1.279       .  A
O869        C890   1.275       .  A
O869       Ni875   1.932       .  S
O870        C879   1.280       .  A
O870       Ni893   1.929       .  S
O871        H894   0.966       .  S
O871       Ni875   1.885       .  S
O871       Ni887   1.914       .  S
C872        O889   1.283       .  A
C872        O881   1.281       .  A
O873        C879   1.276       .  A
O873       Ni892   1.943       .  S
O874        C876   1.270       .  A
O874       Ni892   1.927       .  S
Ni875       O878   1.928       .  S
Ni875       O880   1.911       .  S
C876        O886   1.280       .  A
O877        C883   1.284       .  A
O878        C883   1.283       .  A
O880        C882   1.267       .  A
O881       Ni892   1.936       .  S
C882        O888   1.287       .  A
H884        O885   0.966       .  S
O885       Ni893   1.918       .  S
O885       Ni892   1.894       .  S
Ni887       O891   1.926       .  S
C890        O891   1.275       .  A
O895        C916   1.263       .  A
O895       Ni901   1.908       .  S
O896        C905   1.279       .  A
O896       Ni919   1.878       .  S
O897        H920   0.967       .  S
O897       Ni901   1.857       .  S
O897      Ni1879   1.873       .  S
O897       Ni913   1.911       .  S
C898        O915   1.279       .  A
C898        O907   1.285       .  A
O899        C905   1.267       .  A
O899       Ni918   1.919       .  S
O900        C902   1.261       .  A
O900      Ni1878   1.883       .  S
Ni901       O904   1.892       .  S
Ni901       O906   1.876       .  S
C902        O912   1.292       .  A
O903        C909   1.281       .  A
O903       Ni919   1.951       .  S
O904       C1869   1.285       .  A
O906       C1868   1.260       .  A
O907      Ni1878   1.908       .  S
C908       O1866   1.260       .  A
C908        O914   1.285       .  A
C909       O1864   1.285   1_455  A
H910        O911   0.966   1_455  S
O911       Ni919   1.912   1_655  S
O911      Ni1873   1.867       .  S
O911       Ni918   1.850   1_655  S
O912       Ni913   2.002       .  S
Ni913       O917   1.869       .  S
Ni913       O915   1.946       .  S
Ni913      O1871   1.867       .  S
O914       Ni919   1.978       .  S
C916        O917   1.276       .  A
Ni918      O1860   1.882   1_455  S
Ni918      O1867   1.908   1_455  S
Ni919      O1857   1.873   1_455  S
C921        C926   1.395       .  A
C921        H927   1.083       .  S
C923        H928   1.084       .  S
C924        C925   1.402   1_554  A
C926        H930   1.084       .  S
C931        C932   1.410   1_655  A
C931       C1896   1.396   1_556  A
C931        H937   1.084       .  S
C932       C1893   1.397       .  A
C933       C1892   1.397       .  A
C933        H938   1.084       .  S
C934        C935   1.410       .  A
C934        H939   1.083       .  S
C936       C1891   1.396   1_554  A
C936        H940   1.083       .  S
C941        C946   1.381   1_545  A
C941        H947   1.082       .  S
C942        C943   1.399       .  A
C943       C1904   1.387       .  A
C943        H948   1.083       .  S
C944       C1903   1.387       .  A
C944        H949   1.079       .  S
C945       C1906   1.394       .  A
C946       C1905   1.394       .  A
C946       H1910   1.084       .  S
H950       C1906   1.084       .  S
C951        C952   1.406       .  A
C951        C956   1.384       .  A
C951        H957   1.079       .  S
C952        C953   1.393       .  A
C953        C954   1.381       .  A
C953        H958   1.084       .  S
C954        C955   1.405       .  A
C954        H959   1.077       .  S
C955        C956   1.397       .  A
C956        H960   1.084       .  S
C961        C962   1.511       .  S
C961        C967   1.514       .  S
C961        C965   1.532       .  S
C961       C1156   1.480       .  S
C962        H969   1.087       .  S
C962        C963   1.370       .  D
C963        C964   1.562       .  S
C963       C1096   1.488       .  S
C964        C968   1.529       .  S
C964        C966   1.563       .  S
C964        H970   1.111       .  S
C965        H971   1.086       .  S
C965        C966   1.368       .  D
C966       C1119   1.491       .  S
C967        H972   1.089       .  S
C967        C968   1.347       .  D
C968       C1195   1.442       .  S
C973        C974   1.546       .  S
C973        C979   1.549       .  S
C973        C977   1.562       .  S
C973       C1104   1.522       .  S
C974        H981   1.086       .  S
C974        C975   1.357       .  D
C975        C976   1.499       .  S
C975       C1064   1.452       .  S
C976        C980   1.506       .  S
C976        C978   1.527       .  S
C976        H982   1.111       .  S
C977        H983   1.085       .  S
C977        C978   1.391       .  D
C978       C1138   1.490       .  S
C979        H984   1.086       .  S
C979        C980   1.361       .  D
C980       C1182   1.455       .  S
C985        C986   1.553       .  S
C985        C991   1.531       .  S
C985        C989   1.527       .  S
C985       C1078   1.537       .  S
C986        H993   1.085       .  S
C986        C987   1.377       .  D
C987        C988   1.548       .  S
C987       C1116   1.496       .  S
C988        C992   1.539       .  S
C988        C990   1.549       .  S
C988        H994   1.111       .  S
C989        H995   1.086       .  S
C989        C990   1.387       .  D
C990       C1148   1.490       .  S
C991        H996   1.086       .  S
C991        C992   1.351       .  D
C992       C1172   1.475       .  S
C997        C998   1.514       .  S
C997       C1003   1.508       .  S
C997       C1001   1.542       .  S
C997       C1145   1.487       .  S
C998       H1005   1.089       .  S
C998        C999   1.349       .  D
C999       C1000   1.525       .  S
C999       C1192   1.440       .  S
C1000      C1004   1.547       .  S
C1000      C1002   1.553       .  S
C1000      H1006   1.111       .  S
C1001      H1007   1.086       .  S
C1001      C1002   1.375       .  D
C1002      C1130   1.486       .  S
C1003      H1008   1.088       .  S
C1003      C1004   1.365       .  D
C1004      C1090   1.470       .  S
C1009      C1010   1.532       .  S
C1009      C1015   1.535       .  S
C1009      C1013   1.532       .  S
C1009      C1123   1.510       .  S
C1010      H1017   1.087       .  S
C1010      C1011   1.359       .  D
C1011      C1012   1.544       .  S
C1011      C1097   1.471       .  S
C1012      C1016   1.544       .  S
C1012      C1014   1.534       .  S
C1012      H1018   1.111       .  S
C1013      H1019   1.087       .  S
C1013      C1014   1.363       .  D
C1014      C1162   1.467       .  S
C1015      H1020   1.086       .  S
C1015      C1016   1.378       .  D
C1016      C1071   1.489       .  S
C1021      C1022   1.527       .  S
C1021      C1027   1.551       .  S
C1021      C1025   1.535       .  S
C1021      C1067   1.537       .  S
C1022      H1029   1.086       .  S
C1022      C1023   1.351       .  D
C1023      C1024   1.544       .  S
C1023      C1175   1.476       .  S
C1024      C1028   1.554       .  S
C1024      C1026   1.557       .  S
C1024      H1030   1.111       .  S
C1025      H1031   1.085       .  S
C1025      C1026   1.392       .  D
C1026      C1142   1.508       .  S
C1027      H1032   1.086       .  S
C1027      C1028   1.373       .  D
C1028      C1122   1.500       .  S
C1033      C1034   1.533       .  S
C1033      C1039   1.542       .  S
C1033      C1037   1.528       .  S
C1033      C1060   1.512       .  S
C1034      H1041   1.087       .  S
C1034      C1035   1.372       .  D
C1035      C1036   1.539       .  S
C1035      C1086   1.486       .  S
C1036      C1040   1.545       .  S
C1036      C1038   1.532       .  S
C1036      H1042   1.111       .  S
C1037      H1043   1.087       .  S
C1037      C1038   1.358       .  D
C1038      C1165   1.462       .  S
C1039      H1044   1.086       .  S
C1039      C1040   1.373       .  D
C1040      C1112   1.477       .  S
C1045      C1046   1.504       .  S
C1045      C1051   1.538       .  S
C1045      C1049   1.551       .  S
C1045      C1149   1.506       .  S
C1046      H1053   1.090       .  S
C1046      C1047   1.349       .  D
C1047      C1048   1.526       .  S
C1047      C1070   1.467       .  S
C1048      C1052   1.511       .  S
C1048      C1050   1.567       .  S
C1048      H1054   1.112       .  S
C1049      H1055   1.085       .  S
C1049      C1050   1.392       .  D
C1050      C1093   1.494       .  S
C1051      H1056   1.088       .  S
C1051      C1052   1.356       .  D
C1052      C1185   1.446       .  S
O1057      C1078   1.254       .  A
O1058      C1067   1.286       .  A
O1058     Ni1561   1.988   1_545  S
O1059      H1082   0.967       .  S
O1059     Ni1303   1.859       .  S
O1059     Ni1321   1.906       .  S
C1060      O1557   1.290       .  A
C1060      O1069   1.286       .  A
O1061      C1067   1.260       .  A
O1062      C1064   1.255       .  A
Ni1063     O1066   1.917       .  S
Ni1063     O1299   1.859   1_554  S
C1064      O1074   1.276       .  A
O1065      C1071   1.294       .  A
O1065     Ni1081   1.959       .  S
O1066      C1071   1.285       .  A
O1068      C1070   1.254       .  A
O1069     Ni1080   1.935       .  S
H1072      O1313   0.966       .  S
O1073      H1312   0.966       .  S
O1073     Ni1555   1.905   1_545  S
O1073     Ni1080   1.873       .  S
Ni1075     O1079   1.992       .  S
Ni1075     O1077   1.935       .  S
Ni1075     O1553   1.905       .  S
O1076     Ni1081   1.960   1_455  S
O1077      C1540   1.291       .  A
C1078      O1079   1.284       .  A
Ni1081     O1538   1.992       .  S
Ni1081     O1299   1.905   1_554  S
O1083      C1584   1.257       .  A
O1083     Ni1089   1.892       .  S
O1084      C1093   1.274       .  A
O1084     Ni1107   1.955       .  S
O1085      H1588   0.966       .  S
O1085     Ni1089   1.867       .  S
O1085     Ni1107   1.902       .  S
O1085     Ni1581   1.925       .  S
C1086      O1103   1.290       .  A
C1086      O1095   1.283       .  A
O1087      C1093   1.262       .  A
O1087     Ni1586   1.909       .  S
O1088      C1090   1.260       .  A
O1088     Ni1106   1.865   1_545  S
Ni1089     O1092   1.921       .  S
Ni1089     O1094   1.882       .  S
C1090      O1100   1.271       .  A
O1091      C1097   1.288       .  A
O1091     Ni1107   1.934       .  S
O1092      C1097   1.280       .  A
O1094      C1096   1.264       .  A
O1095     Ni1106   1.919   1_545  S
C1096      O1102   1.270       .  A
H1098      O1099   0.966       .  S
O1099     Ni1107   1.913       .  S
O1099     Ni1581   1.917       .  S
O1099     Ni1586   1.866       .  S
O1100     Ni1101   1.939       .  S
Ni1101     O1105   1.977       .  S
Ni1101     O1103   1.947       .  S
Ni1101     O1565   1.927   1_545  S
Ni1101     O1579   1.917   1_545  S
O1102     Ni1107   1.945       .  S
C1104      O1563   1.257   1_545  A
C1104      O1105   1.276       .  A
Ni1106     O1567   1.908       .  S
Ni1106     O1579   1.867       .  S
H1108      O1565   0.966   1_545  S
O1109      C1130   1.274       .  A
O1109     Ni1115   1.931       .  S
O1110      C1119   1.278       .  A
O1110     Ni1133   1.927       .  S
O1111      H1134   0.966       .  S
O1111     Ni1115   1.885       .  S
O1111     Ni1373   1.895   1_554  S
O1111     Ni1127   1.912       .  S
C1112      O1129   1.283       .  A
C1112      O1121   1.281       .  A
O1113      C1119   1.275       .  A
O1113     Ni1132   1.944       .  S
O1114      C1116   1.269       .  A
O1114     Ni1132   1.918       .  S
Ni1115     O1118   1.925       .  S
Ni1115     O1120   1.910       .  S
C1116      O1126   1.280       .  A
O1117      C1123   1.282       .  A
O1117     Ni1373   1.925   1_554  S
O1118      C1123   1.283       .  A
O1120      C1122   1.267       .  A
O1121     Ni1132   1.934       .  S
C1122      O1128   1.287       .  A
H1124      O1125   0.966       .  S
O1125     Ni1133   1.914       .  S
O1125     Ni1367   1.902       .  S
O1125     Ni1132   1.894       .  S
O1126     Ni1367   1.962       .  S
Ni1127     O1366   1.963   1_554  S
Ni1127     O1131   1.932       .  S
Ni1127     O1369   1.934   1_554  S
Ni1127     O1365   1.902   1_554  S
O1128     Ni1373   1.978   1_554  S
O1129     Ni1367   1.934       .  S
C1130      O1131   1.277       .  A
Ni1133     O1357   1.927       .  S
Ni1133     O1368   1.977       .  S
Ni1133     O1351   1.895       .  S
O1135      C1156   1.262       .  A
O1135     Ni1141   1.908       .  S
O1136      C1145   1.277       .  A
O1136     Ni1159   1.874       .  S
O1137      H1160   0.967       .  S
O1137     Ni1141   1.858       .  S
O1137     Ni1153   1.908       .  S
C1138      O1155   1.278       .  A
C1138      O1147   1.286       .  A
O1139      C1145   1.268       .  A
O1139     Ni1158   1.923       .  S
O1140      C1142   1.261       .  A
Ni1141     O1144   1.888       .  S
Ni1141     O1146   1.876   1_655  S
C1142      O1152   1.290       .  A
O1143      C1149   1.281       .  A
O1143     Ni1159   1.954       .  S
C1148      O1154   1.283       .  A
H1150      O1151   0.966       .  S
O1151     Ni1159   1.911       .  S
O1151     Ni1158   1.852       .  S
O1152     Ni1153   1.996       .  S
Ni1153     O1157   1.873       .  S
Ni1153     O1155   1.943       .  S
O1154     Ni1159   1.972       .  S
C1156      O1157   1.276       .  A
C1161      C1402   1.404       .  A
C1161      C1166   1.394       .  A
C1161      H1167   1.083       .  S
C1162      C1401   1.405   1_554  A
C1162      C1643   1.400       .  A
C1163      C1642   1.400       .  A
C1163      C1404   1.394   1_565  A
C1163      H1168   1.084       .  S
C1164      C1403   1.393   1_545  A
C1164      C1165   1.402       .  A
C1164      H1409   1.084       .  S
C1165      C1646   1.400   1_545  A
C1166      C1645   1.399       .  A
C1166      H1170   1.084       .  S
H1169      C1404   1.084       .  S
C1171      C1172   1.408       .  A
C1171      H1177   1.083       .  S
C1173      C1414   1.397       .  A
C1173      H1178   1.084       .  S
C1174      C1413   1.397   1_554  A
C1174      C1175   1.411   1_455  A
C1174      H1179   1.084       .  S
C1175      C1416   1.398   1_554  A
C1176      C1415   1.398       .  A
C1176      H1180   1.083       .  S
C1181      C1662   1.405   1_455  A
C1181      C1186   1.382       .  A
C1181      H1187   1.082       .  S
C1182      C1661   1.404   1_655  A
C1182      C1183   1.398       .  A
C1183      H1188   1.083       .  S
C1184      C1665   1.400   1_545  A
C1184      H1189   1.079   1_545  S
C1185      C1664   1.399       .  A
C1191      C1192   1.405       .  A
C1191      C1196   1.384       .  A
C1191      H1197   1.080       .  S
C1192      C1193   1.394       .  A
C1193      C1194   1.382       .  A
C1193      H1198   1.084       .  S
C1194      C1195   1.406       .  A
C1194      H1199   1.078       .  S
C1195      C1196   1.396       .  A
C1196      H1200   1.084       .  S
C1201      C1202   1.510       .  S
C1201      C1207   1.514       .  S
C1201      C1205   1.534       .  S
C1201      C1396   1.482       .  S
C1202      H1209   1.087       .  S
C1202      C1203   1.369       .  D
C1203      C1204   1.561       .  S
C1203      C1336   1.488       .  S
C1204      C1208   1.527       .  S
C1204      C1206   1.564       .  S
C1204      H1210   1.111       .  S
C1205      H1211   1.086       .  S
C1205      C1206   1.369       .  D
C1206      C1359   1.493       .  S
C1207      H1212   1.089       .  S
C1207      C1208   1.347       .  D
C1208      C1435   1.440       .  S
C1213      C1214   1.545       .  S
C1213      C1219   1.550       .  S
C1213      C1217   1.561       .  S
C1213      C1344   1.521       .  S
C1214      H1221   1.086       .  S
C1214      C1215   1.356       .  D
C1215      C1216   1.500       .  S
C1215      C1304   1.452       .  S
C1216      C1220   1.506       .  S
C1216      C1218   1.527       .  S
C1216      H1222   1.111       .  S
C1217      H1223   1.085       .  S
C1217      C1218   1.390       .  D
C1218      C1378   1.490       .  S
C1219      H1224   1.086       .  S
C1219      C1220   1.361       .  D
C1220      C1422   1.456       .  S
C1225      C1226   1.554       .  S
C1225      C1231   1.530       .  S
C1225      C1229   1.527       .  S
C1225      C1318   1.537       .  S
C1226      H1233   1.085       .  S
C1226      C1227   1.377       .  D
C1227      C1228   1.549       .  S
C1227      C1356   1.497       .  S
C1228      C1232   1.540       .  S
C1228      C1230   1.550       .  S
C1228      H1234   1.111       .  S
C1229      H1235   1.086       .  S
C1229      C1230   1.387       .  D
C1230      C1388   1.492       .  S
C1231      H1236   1.085       .  S
C1231      C1232   1.351       .  D
C1232      C1412   1.476       .  S
C1237      C1238   1.513       .  S
C1237      C1243   1.509       .  S
C1237      C1241   1.542       .  S
C1237      C1385   1.487       .  S
C1238      H1245   1.089       .  S
C1238      C1239   1.348       .  D
C1239      C1240   1.525       .  S
C1239      C1432   1.439       .  S
C1240      C1244   1.547       .  S
C1240      C1242   1.553       .  S
C1240      H1246   1.111       .  S
C1241      H1247   1.086       .  S
C1241      C1242   1.375       .  D
C1242      C1370   1.486       .  S
C1243      H1248   1.088       .  S
C1243      C1244   1.366       .  D
C1244      C1330   1.469       .  S
C1249      C1250   1.534       .  S
C1249      C1255   1.535       .  S
C1249      C1253   1.533       .  S
C1249      C1363   1.512       .  S
C1250      H1257   1.087       .  S
C1250      C1251   1.359       .  D
C1251      C1252   1.543       .  S
C1251      C1337   1.473       .  S
C1252      C1256   1.543       .  S
C1252      C1254   1.532       .  S
C1252      H1258   1.111       .  S
C1253      H1259   1.087       .  S
C1253      C1254   1.363       .  D
C1254      C1402   1.466       .  S
C1255      H1260   1.086       .  S
C1255      C1256   1.378       .  D
C1256      C1311   1.488       .  S
C1261      C1262   1.528       .  S
C1261      C1267   1.551       .  S
C1261      C1265   1.534       .  S
C1261      C1307   1.538       .  S
C1262      H1269   1.086       .  S
C1262      C1263   1.351       .  D
C1263      C1264   1.543       .  S
C1263      C1415   1.475       .  S
C1264      C1268   1.553       .  S
C1264      C1266   1.555       .  S
C1264      H1270   1.111       .  S
C1265      H1271   1.085       .  S
C1265      C1266   1.392       .  D
C1266      C1382   1.507       .  S
C1267      H1272   1.086       .  S
C1267      C1268   1.373       .  D
C1268      C1362   1.498       .  S
C1273      C1274   1.533       .  S
C1273      C1279   1.543       .  S
C1273      C1277   1.527       .  S
C1273      C1300   1.513       .  S
C1274      H1281   1.087       .  S
C1274      C1275   1.373       .  D
C1275      C1276   1.540       .  S
C1275      C1326   1.488       .  S
C1276      C1280   1.546       .  S
C1276      C1278   1.533       .  S
C1276      H1282   1.111       .  S
C1277      H1283   1.088       .  S
C1277      C1278   1.358       .  D
C1278      C1405   1.463       .  S
C1279      H1284   1.086       .  S
C1279      C1280   1.374       .  D
C1280      C1352   1.479       .  S
C1285      C1286   1.504       .  S
C1285      C1291   1.537       .  S
C1285      C1289   1.550       .  S
C1285      C1389   1.506       .  S
C1286      H1293   1.090       .  S
C1286      C1287   1.349       .  D
C1287      C1288   1.525       .  S
C1287      C1310   1.467       .  S
C1288      C1292   1.512       .  S
C1288      C1290   1.568       .  S
C1288      H1294   1.112       .  S
C1289      H1295   1.085       .  S
C1289      C1290   1.392       .  D
C1290      C1333   1.493       .  S
C1291      H1296   1.088       .  S
C1291      C1292   1.356       .  D
C1292      C1425   1.446       .  S
O1297      C1318   1.254       .  A
O1298      C1307   1.286       .  A
O1298     Ni1801   1.989   1_545  S
O1299      H1322   0.967       .  S
C1300      O1797   1.291       .  A
C1300      O1309   1.286       .  A
O1301      C1307   1.260       .  A
O1302      C1304   1.255       .  A
Ni1303     O1306   1.915       .  S
C1304      O1314   1.276       .  A
O1305      C1311   1.294       .  A
O1305     Ni1321   1.958       .  S
O1306      C1311   1.285       .  A
O1308      C1310   1.253       .  A
O1309     Ni1320   1.935       .  S
O1313     Ni1795   1.905   1_544  S
O1313     Ni1320   1.873   1_554  S
Ni1315     O1319   1.991       .  S
Ni1315     O1317   1.938       .  S
Ni1315     O1793   1.903   1_556  S
O1316     Ni1321   1.959   1_455  S
O1317      C1780   1.292       .  A
C1318      O1319   1.284       .  A
Ni1321     O1778   1.993       .  S
O1323      C1824   1.257       .  A
O1323     Ni1329   1.893       .  S
O1324      C1333   1.274       .  A
O1324     Ni1347   1.955       .  S
O1325      H1828   0.966       .  S
O1325     Ni1329   1.866       .  S
O1325     Ni1347   1.902       .  S
O1325     Ni1821   1.926       .  S
C1326      O1343   1.291       .  A
C1326      O1335   1.283       .  A
O1327      C1333   1.262       .  A
O1327     Ni1826   1.909       .  S
O1328      C1330   1.260       .  A
O1328     Ni1346   1.866   1_545  S
Ni1329     O1332   1.922       .  S
Ni1329     O1334   1.881       .  S
C1330      O1340   1.271       .  A
O1331      C1337   1.288       .  A
O1331     Ni1347   1.937       .  S
O1332      C1337   1.280       .  A
O1334      C1336   1.264       .  A
O1335     Ni1346   1.920   1_545  S
C1336      O1342   1.270       .  A
H1338      O1339   0.966       .  S
O1339     Ni1347   1.916       .  S
O1339     Ni1821   1.916       .  S
O1339     Ni1826   1.866       .  S
O1340     Ni1341   1.939       .  S
Ni1341     O1345   1.976       .  S
Ni1341     O1343   1.949       .  S
Ni1341     O1805   1.928   1_545  S
Ni1341     O1819   1.917   1_545  S
O1342     Ni1347   1.944       .  S
C1344      O1803   1.257   1_545  A
C1344      O1345   1.276       .  A
Ni1346     O1807   1.908       .  S
Ni1346     O1819   1.866       .  S
H1348      O1805   0.967   1_545  S
O1349      C1370   1.274       .  A
O1349     Ni1355   1.932       .  S
O1350      C1359   1.279       .  A
O1350     Ni1373   1.930       .  S
O1351      H1374   0.966       .  S
O1351     Ni1355   1.885       .  S
O1351     Ni1367   1.911       .  S
C1352      O1369   1.283       .  A
C1352      O1361   1.282       .  A
O1353      C1359   1.275       .  A
O1353     Ni1372   1.945       .  S
O1354      C1356   1.269       .  A
O1354     Ni1372   1.919       .  S
Ni1355     O1358   1.926       .  S
Ni1355     O1360   1.909       .  S
C1356      O1366   1.280       .  A
O1357      C1363   1.282       .  A
O1358      C1363   1.283       .  A
O1360      C1362   1.266       .  A
O1361     Ni1372   1.936       .  S
C1362      O1368   1.286       .  A
H1364      O1365   0.966       .  S
O1365     Ni1373   1.915       .  S
O1365     Ni1372   1.894       .  S
Ni1367     O1371   1.932       .  S
C1370      O1371   1.277       .  A
O1375      C1396   1.262       .  A
O1375     Ni1381   1.909       .  S
O1376      C1385   1.277       .  A
O1376     Ni1399   1.874       .  S
O1377      H1400   0.967       .  S
O1377     Ni1381   1.859       .  S
O1377     Ni1393   1.908       .  S
C1378      O1395   1.278       .  A
C1378      O1387   1.286       .  A
O1379      C1385   1.268       .  A
O1379     Ni1398   1.922       .  S
O1380      C1382   1.260       .  A
Ni1381     O1384   1.889       .  S
Ni1381     O1386   1.876   1_655  S
C1382      O1392   1.290       .  A
O1383      C1389   1.281       .  A
O1383     Ni1399   1.954       .  S
C1388      O1394   1.283       .  A
H1390      O1391   0.966       .  S
O1391     Ni1399   1.911       .  S
O1391     Ni1398   1.853       .  S
O1392     Ni1393   1.996       .  S
Ni1393     O1397   1.874       .  S
Ni1393     O1395   1.942       .  S
O1394     Ni1399   1.973       .  S
C1396      O1397   1.276       .  A
C1401      C1406   1.394       .  A
C1401      H1407   1.084       .  S
C1402      C1883   1.400       .  A
C1403      C1882   1.399       .  A
C1403      H1408   1.084       .  S
C1404      C1405   1.403   1_554  A
C1405      C1886   1.399   1_545  A
C1406      C1885   1.399       .  A
C1406      H1410   1.084       .  S
C1411      C1412   1.409       .  A
C1411      H1417   1.083       .  S
C1413      H1418   1.084       .  S
C1414      C1415   1.410   1_455  A
C1414      H1419   1.084       .  S
C1416      H1420   1.083   1_556  S
C1421      C1902   1.405   1_455  A
C1421      C1426   1.383       .  A
C1421      H1427   1.082       .  S
C1422      C1901   1.404   1_655  A
C1422      C1423   1.398       .  A
C1423      H1428   1.083       .  S
C1424      C1905   1.400   1_545  A
C1424      H1429   1.079   1_545  S
C1425      C1904   1.400       .  A
C1431      C1432   1.405       .  A
C1431      C1436   1.384       .  A
C1431      H1437   1.080       .  S
C1432      C1433   1.394       .  A
C1433      C1434   1.381       .  A
C1433      H1438   1.084       .  S
C1434      C1435   1.406       .  A
C1434      H1439   1.078       .  S
C1435      C1436   1.396       .  A
C1436      H1440   1.084       .  S
C1441      C1442   1.510       .  S
C1441      C1447   1.513       .  S
C1441      C1445   1.532       .  S
C1441      C1636   1.478       .  S
C1442      H1449   1.087       .  S
C1442      C1443   1.369       .  D
C1443      C1444   1.559       .  S
C1443      C1576   1.486       .  S
C1444      C1448   1.529       .  S
C1444      C1446   1.563       .  S
C1444      H1450   1.111       .  S
C1445      H1451   1.086       .  S
C1445      C1446   1.368       .  D
C1446      C1599   1.489       .  S
C1447      H1452   1.089       .  S
C1447      C1448   1.348       .  D
C1448      C1675   1.441       .  S
C1453      C1454   1.547       .  S
C1453      C1459   1.551       .  S
C1453      C1457   1.560       .  S
C1453      C1584   1.525       .  S
C1454      H1461   1.086       .  S
C1454      C1455   1.358       .  D
C1455      C1456   1.500       .  S
C1455      C1544   1.454       .  S
C1456      C1460   1.506       .  S
C1456      C1458   1.528       .  S
C1456      H1462   1.111       .  S
C1457      H1463   1.085       .  S
C1457      C1458   1.390       .  D
C1458      C1618   1.489       .  S
C1459      H1464   1.086       .  S
C1459      C1460   1.363       .  D
C1460      C1662   1.460       .  S
C1465      C1466   1.556       .  S
C1465      C1471   1.530       .  S
C1465      C1469   1.531       .  S
C1465      C1558   1.542       .  S
C1466      H1473   1.085       .  S
C1466      C1467   1.379       .  D
C1467      C1468   1.549       .  S
C1467      C1596   1.502       .  S
C1468      C1472   1.539       .  S
C1468      C1470   1.546       .  S
C1468      H1474   1.111       .  S
C1469      H1475   1.086       .  S
C1469      C1470   1.388       .  D
C1470      C1628   1.493       .  S
C1471      H1476   1.086       .  S
C1471      C1472   1.351       .  D
C1472      C1652   1.474       .  S
C1477      C1478   1.512       .  S
C1477      C1483   1.512       .  S
C1477      C1481   1.542       .  S
C1477      C1625   1.489       .  S
C1478      H1485   1.089       .  S
C1478      C1479   1.349       .  D
C1479      C1480   1.522       .  S
C1479      C1672   1.437       .  S
C1480      C1484   1.542       .  S
C1480      C1482   1.549       .  S
C1480      H1486   1.111       .  S
C1481      H1487   1.086       .  S
C1481      C1482   1.375       .  D
C1482      C1610   1.481       .  S
C1483      H1488   1.088       .  S
C1483      C1484   1.367       .  D
C1484      C1570   1.469       .  S
C1489      C1490   1.536       .  S
C1489      C1495   1.535       .  S
C1489      C1493   1.532       .  S
C1489      C1603   1.515       .  S
C1490      H1497   1.087       .  S
C1490      C1491   1.361       .  D
C1491      C1492   1.544       .  S
C1491      C1577   1.474       .  S
C1492      C1496   1.544       .  S
C1492      C1494   1.534       .  S
C1492      H1498   1.111       .  S
C1493      H1499   1.087       .  S
C1493      C1494   1.362       .  D
C1494      C1642   1.466       .  S
C1495      H1500   1.086       .  S
C1495      C1496   1.379       .  D
C1496      C1551   1.491       .  S
C1501      C1502   1.527       .  S
C1501      C1507   1.553       .  S
C1501      C1505   1.537       .  S
C1501      C1547   1.543       .  S
C1502      H1509   1.086       .  S
C1502      C1503   1.351       .  D
C1503      C1504   1.543       .  S
C1503      C1655   1.477       .  S
C1504      C1508   1.554       .  S
C1504      C1506   1.558       .  S
C1504      H1510   1.111       .  S
C1505      H1511   1.085       .  S
C1505      C1506   1.393       .  D
C1506      C1622   1.513       .  S
C1507      H1512   1.086       .  S
C1507      C1508   1.375       .  D
C1508      C1602   1.504       .  S
C1513      C1514   1.531       .  S
C1513      C1519   1.543       .  S
C1513      C1517   1.530       .  S
C1513      C1540   1.512       .  S
C1514      H1521   1.087       .  S
C1514      C1515   1.372       .  D
C1515      C1516   1.539       .  S
C1515      C1566   1.485       .  S
C1516      C1520   1.544       .  S
C1516      C1518   1.531       .  S
C1516      H1522   1.111       .  S
C1517      H1523   1.087       .  S
C1517      C1518   1.360       .  D
C1518      C1645   1.463       .  S
C1519      H1524   1.086       .  S
C1519      C1520   1.371       .  D
C1520      C1592   1.477       .  S
C1525      C1526   1.503       .  S
C1525      C1531   1.535       .  S
C1525      C1529   1.550       .  S
C1525      C1629   1.503       .  S
C1526      H1533   1.090       .  S
C1526      C1527   1.349       .  D
C1527      C1528   1.528       .  S
C1527      C1550   1.470       .  S
C1528      C1532   1.512       .  S
C1528      C1530   1.569       .  S
C1528      H1534   1.111       .  S
C1529      H1535   1.085       .  S
C1529      C1530   1.392       .  D
C1530      C1573   1.494       .  S
C1531      H1536   1.089       .  S
C1531      C1532   1.356       .  D
C1532      C1665   1.444       .  S
O1537      C1558   1.256       .  A
O1538      C1547   1.287       .  A
O1539      H1562   0.966       .  S
O1539     Ni1783   1.858       .  S
O1539     Ni1801   1.903       .  S
C1540      O1549   1.285       .  A
O1541      C1547   1.261       .  A
O1542      C1544   1.255       .  A
Ni1543     O1546   1.914       .  S
Ni1543     O1779   1.858   1_554  S
C1544      O1554   1.277       .  A
O1545      C1551   1.296       .  A
O1545     Ni1561   1.965       .  S
O1546      C1551   1.284       .  A
O1548      C1550   1.255       .  A
O1549     Ni1560   1.931       .  S
H1552      O1793   0.966       .  S
O1553      H1792   0.966       .  S
O1553     Ni1560   1.870       .  S
Ni1555     O1559   1.991       .  S
Ni1555     O1557   1.932   1_565  S
O1556     Ni1561   1.960   1_455  S
C1558      O1559   1.285       .  A
Ni1561     O1779   1.903   1_554  S
O1563     Ni1569   1.894       .  S
O1564      C1573   1.274       .  A
O1564     Ni1587   1.956       .  S
O1565     Ni1569   1.867       .  S
O1565     Ni1587   1.904       .  S
C1566      O1583   1.291       .  A
C1566      O1575   1.283       .  A
O1567      C1573   1.261       .  A
O1568      C1570   1.260       .  A
O1568     Ni1586   1.865       .  S
Ni1569     O1572   1.926       .  S
Ni1569     O1574   1.878       .  S
C1570      O1580   1.273       .  A
O1571      C1577   1.287       .  A
O1571     Ni1587   1.934       .  S
O1572      C1577   1.281       .  A
O1574      C1576   1.264       .  A
O1575     Ni1586   1.918       .  S
C1576      O1582   1.270       .  A
H1578      O1579   0.966       .  S
O1579     Ni1587   1.915       .  S
O1580     Ni1581   1.942       .  S
Ni1581     O1585   1.982       .  S
Ni1581     O1583   1.947       .  S
O1582     Ni1587   1.944       .  S
C1584      O1585   1.279       .  A
O1589      C1610   1.274       .  A
O1589     Ni1595   1.931       .  S
O1590      C1599   1.279       .  A
O1590     Ni1613   1.929       .  S
O1591      H1614   0.966       .  S
O1591     Ni1595   1.883       .  S
O1591     Ni1853   1.893   1_554  S
O1591     Ni1607   1.913       .  S
C1592      O1609   1.283       .  A
C1592      O1601   1.280       .  A
O1593      C1599   1.274       .  A
O1593     Ni1612   1.939       .  S
O1594      C1596   1.269       .  A
O1594     Ni1612   1.924       .  S
Ni1595     O1598   1.928       .  S
Ni1595     O1600   1.910       .  S
C1596      O1606   1.281       .  A
O1597      C1603   1.284       .  A
O1597     Ni1853   1.932   1_554  S
O1598      C1603   1.283       .  A
O1600      C1602   1.266       .  A
O1601     Ni1612   1.931       .  S
C1602      O1608   1.288       .  A
H1604      O1605   0.966       .  S
O1605     Ni1613   1.917       .  S
O1605     Ni1847   1.899       .  S
O1605     Ni1612   1.894       .  S
O1606     Ni1847   1.966       .  S
Ni1607     O1846   1.964   1_554  S
Ni1607     O1611   1.923       .  S
Ni1607     O1849   1.938   1_554  S
Ni1607     O1845   1.899   1_554  S
O1608     Ni1853   1.985   1_554  S
O1609     Ni1847   1.937       .  S
C1610      O1611   1.274       .  A
Ni1613     O1837   1.932       .  S
Ni1613     O1848   1.981       .  S
Ni1613     O1831   1.894       .  S
O1615      C1636   1.263       .  A
O1615     Ni1621   1.909       .  S
O1616      C1625   1.279       .  A
O1616     Ni1639   1.880       .  S
O1617      H1640   0.967       .  S
O1617     Ni1621   1.858       .  S
O1617     Ni1633   1.910       .  S
C1618      O1635   1.278       .  A
C1618      O1627   1.286       .  A
O1619      C1625   1.267       .  A
O1619     Ni1638   1.919       .  S
O1620      C1622   1.261       .  A
Ni1621     O1624   1.891       .  S
Ni1621     O1626   1.877   1_655  S
C1622      O1632   1.291       .  A
O1623      C1629   1.280       .  A
O1623     Ni1639   1.948       .  S
C1628      O1634   1.285       .  A
H1630      O1631   0.966       .  S
O1631     Ni1639   1.910       .  S
O1631     Ni1638   1.850       .  S
O1632     Ni1633   2.001       .  S
Ni1633     O1637   1.872       .  S
Ni1633     O1635   1.944       .  S
O1634     Ni1639   1.977       .  S
C1636      O1637   1.276       .  A
C1641      C1882   1.404       .  A
C1641      C1646   1.395       .  A
C1641      H1647   1.083       .  S
C1642      C1881   1.404   1_554  A
C1643      C1884   1.394       .  A
C1643      H1648   1.083       .  S
C1644      C1883   1.393       .  A
C1644      C1645   1.402       .  A
C1644      H1889   1.084       .  S
C1646      H1650   1.084       .  S
H1649      C1884   1.083       .  S
C1651      C1652   1.410       .  A
C1651      H1657   1.084       .  S
C1653      C1894   1.394       .  A
C1653      H1658   1.084       .  S
C1654      C1893   1.395   1_554  A
C1654      C1655   1.410   1_455  A
C1654      H1659   1.083       .  S
C1655      C1896   1.399       .  A
C1656      C1895   1.399       .  A
C1656      H1660   1.083       .  S
C1661      C1666   1.380   1_545  A
C1661      H1667   1.082       .  S
C1662      C1663   1.399       .  A
C1663      H1668   1.083       .  S
C1664      H1669   1.079       .  S
C1671      C1672   1.405       .  A
C1671      C1676   1.383       .  A
C1671      H1677   1.079       .  S
C1672      C1673   1.393       .  A
C1673      C1674   1.380       .  A
C1673      H1678   1.084       .  S
C1674      C1675   1.405       .  A
C1674      H1679   1.077       .  S
C1675      C1676   1.397       .  A
C1676      H1680   1.084       .  S
C1681      C1682   1.510       .  S
C1681      C1687   1.513       .  S
C1681      C1685   1.531       .  S
C1681      C1876   1.477       .  S
C1682      H1689   1.087       .  S
C1682      C1683   1.368       .  D
C1683      C1684   1.562       .  S
C1683      C1816   1.488       .  S
C1684      C1688   1.529       .  S
C1684      C1686   1.565       .  S
C1684      H1690   1.110       .  S
C1685      H1691   1.086       .  S
C1685      C1686   1.368       .  D
C1686      C1839   1.492       .  S
C1687      H1692   1.089       .  S
C1687      C1688   1.347       .  D
C1688      C1915   1.441       .  S
C1693      C1694   1.547       .  S
C1693      C1699   1.550       .  S
C1693      C1697   1.561       .  S
C1693      C1824   1.525       .  S
C1694      H1701   1.086       .  S
C1694      C1695   1.358       .  D
C1695      C1696   1.501       .  S
C1695      C1784   1.458       .  S
C1696      C1700   1.508       .  S
C1696      C1698   1.529       .  S
C1696      H1702   1.111       .  S
C1697      H1703   1.085       .  S
C1697      C1698   1.390       .  D
C1698      C1858   1.491       .  S
C1699      H1704   1.086       .  S
C1699      C1700   1.362       .  D
C1700      C1902   1.461       .  S
C1705      C1706   1.557       .  S
C1705      C1711   1.531       .  S
C1705      C1709   1.531       .  S
C1705      C1798   1.544       .  S
C1706      H1713   1.085       .  S
C1706      C1707   1.380       .  D
C1707      C1708   1.549       .  S
C1707      C1836   1.504       .  S
C1708      C1712   1.541       .  S
C1708      C1710   1.547       .  S
C1708      H1714   1.111       .  S
C1709      H1715   1.086       .  S
C1709      C1710   1.388       .  D
C1710      C1868   1.493       .  S
C1711      H1716   1.086       .  S
C1711      C1712   1.351       .  D
C1712      C1892   1.476       .  S
C1717      C1718   1.512       .  S
C1717      C1723   1.511       .  S
C1717      C1721   1.542       .  S
C1717      C1865   1.487       .  S
C1718      H1725   1.089       .  S
C1718      C1719   1.349       .  D
C1719      C1720   1.524       .  S
C1719      C1912   1.438       .  S
C1720      C1724   1.544       .  S
C1720      C1722   1.550       .  S
C1720      H1726   1.111       .  S
C1721      H1727   1.086       .  S
C1721      C1722   1.375       .  D
C1722      C1850   1.482       .  S
C1723      H1728   1.088       .  S
C1723      C1724   1.367       .  D
C1724      C1810   1.469       .  S
C1729      C1730   1.535       .  S
C1729      C1735   1.536       .  S
C1729      C1733   1.532       .  S
C1729      C1843   1.516       .  S
C1730      H1737   1.087       .  S
C1730      C1731   1.360       .  D
C1731      C1732   1.542       .  S
C1731      C1817   1.473       .  S
C1732      C1736   1.543       .  S
C1732      C1734   1.533       .  S
C1732      H1738   1.111       .  S
C1733      H1739   1.087       .  S
C1733      C1734   1.362       .  D
C1734      C1882   1.465       .  S
C1735      H1740   1.086       .  S
C1735      C1736   1.380       .  D
C1736      C1791   1.490       .  S
C1741      C1742   1.526       .  S
C1741      C1747   1.553       .  S
C1741      C1745   1.537       .  S
C1741      C1787   1.544       .  S
C1742      H1749   1.086       .  S
C1742      C1743   1.351       .  D
C1743      C1744   1.544       .  S
C1743      C1895   1.477       .  S
C1744      C1748   1.554       .  S
C1744      C1746   1.559       .  S
C1744      H1750   1.111       .  S
C1745      H1751   1.085       .  S
C1745      C1746   1.393       .  D
C1746      C1862   1.515       .  S
C1747      H1752   1.086       .  S
C1747      C1748   1.375       .  D
C1748      C1842   1.503       .  S
C1753      C1754   1.533       .  S
C1753      C1759   1.544       .  S
C1753      C1757   1.530       .  S
C1753      C1780   1.515       .  S
C1754      H1761   1.087       .  S
C1754      C1755   1.373       .  D
C1755      C1756   1.540       .  S
C1755      C1806   1.487       .  S
C1756      C1760   1.545       .  S
C1756      C1758   1.531       .  S
C1756      H1762   1.111       .  S
C1757      H1763   1.087       .  S
C1757      C1758   1.360       .  D
C1758      C1885   1.462       .  S
C1759      H1764   1.086       .  S
C1759      C1760   1.372       .  D
C1760      C1832   1.481       .  S
C1765      C1766   1.504       .  S
C1765      C1771   1.535       .  S
C1765      C1769   1.551       .  S
C1765      C1869   1.505       .  S
C1766      H1773   1.090       .  S
C1766      C1767   1.350       .  D
C1767      C1768   1.527       .  S
C1767      C1790   1.469       .  S
C1768      C1772   1.511       .  S
C1768      C1770   1.568       .  S
C1768      H1774   1.111       .  S
C1769      H1775   1.085       .  S
C1769      C1770   1.392       .  D
C1770      C1813   1.495       .  S
C1771      H1776   1.089       .  S
C1771      C1772   1.356       .  D
C1772      C1905   1.444       .  S
O1777      C1798   1.256       .  A
O1778      C1787   1.287       .  A
O1779      H1802   0.966       .  S
C1780      O1789   1.285       .  A
O1781      C1787   1.260       .  A
O1782      C1784   1.256       .  A
Ni1783     O1786   1.914       .  S
C1784      O1794   1.277       .  A
O1785      C1791   1.296       .  A
O1785     Ni1801   1.964       .  S
O1786      C1791   1.284       .  A
O1788      C1790   1.254       .  A
O1789     Ni1800   1.933       .  S
O1793     Ni1800   1.870   1_554  S
Ni1795     O1799   1.994       .  S
Ni1795     O1797   1.935   1_565  S
O1796     Ni1801   1.960   1_455  S
C1798      O1799   1.286       .  A
O1803     Ni1809   1.892       .  S
O1804      C1813   1.274       .  A
O1804     Ni1827   1.957       .  S
O1805     Ni1809   1.868       .  S
O1805     Ni1827   1.904       .  S
C1806      O1823   1.291       .  A
C1806      O1815   1.284       .  A
O1807      C1813   1.261       .  A
O1808      C1810   1.260       .  A
O1808     Ni1826   1.866       .  S
Ni1809     O1812   1.924       .  S
Ni1809     O1814   1.882       .  S
C1810      O1820   1.273       .  A
O1811      C1817   1.287       .  A
O1811     Ni1827   1.935       .  S
O1812      C1817   1.280       .  A
O1814      C1816   1.265       .  A
O1815     Ni1826   1.921       .  S
C1816      O1822   1.270       .  A
H1818      O1819   0.967       .  S
O1819     Ni1827   1.915       .  S
O1820     Ni1821   1.941       .  S
Ni1821     O1825   1.981       .  S
Ni1821     O1823   1.947       .  S
O1822     Ni1827   1.943       .  S
C1824      O1825   1.279       .  A
O1829      C1850   1.274       .  A
O1829     Ni1835   1.932       .  S
O1830      C1839   1.280       .  A
O1830     Ni1853   1.930       .  S
O1831      H1854   0.966       .  S
O1831     Ni1835   1.885       .  S
O1831     Ni1847   1.914       .  S
C1832      O1849   1.283       .  A
C1832      O1841   1.281       .  A
O1833      C1839   1.276       .  A
O1833     Ni1852   1.943       .  S
O1834      C1836   1.270       .  A
O1834     Ni1852   1.927       .  S
Ni1835     O1838   1.928       .  S
Ni1835     O1840   1.911       .  S
C1836      O1846   1.280       .  A
O1837      C1843   1.283       .  A
O1838      C1843   1.284       .  A
O1840      C1842   1.267       .  A
O1841     Ni1852   1.935       .  S
C1842      O1848   1.287       .  A
H1844      O1845   0.966       .  S
O1845     Ni1853   1.917       .  S
O1845     Ni1852   1.894       .  S
Ni1847     O1851   1.927       .  S
C1850      O1851   1.275       .  A
O1855      C1876   1.263       .  A
O1855     Ni1861   1.908       .  S
O1856      C1865   1.279       .  A
O1856     Ni1879   1.878       .  S
O1857      H1880   0.967       .  S
O1857     Ni1861   1.858       .  S
O1857     Ni1873   1.911       .  S
C1858      O1875   1.279       .  A
C1858      O1867   1.286       .  A
O1859      C1865   1.267       .  A
O1859     Ni1878   1.918       .  S
O1860      C1862   1.261       .  A
Ni1861     O1864   1.892       .  S
Ni1861     O1866   1.876   1_655  S
C1862      O1872   1.292       .  A
O1863      C1869   1.281       .  A
O1863     Ni1879   1.951       .  S
C1868      O1874   1.285       .  A
H1870      O1871   0.966       .  S
O1871     Ni1879   1.912       .  S
O1871     Ni1878   1.850       .  S
O1872     Ni1873   2.003       .  S
Ni1873     O1877   1.870       .  S
Ni1873     O1875   1.946       .  S
O1874     Ni1879   1.978       .  S
C1876      O1877   1.276       .  A
C1881      C1886   1.395       .  A
C1881      H1887   1.083       .  S
C1883      H1888   1.084       .  S
C1884      C1885   1.402   1_554  A
C1886      H1890   1.084       .  S
C1891      C1892   1.410       .  A
C1891      H1897   1.083       .  S
C1893      H1898   1.084       .  S
C1894      C1895   1.410   1_455  A
C1894      H1899   1.083       .  S
C1896      H1900   1.084       .  S
C1901      C1906   1.381   1_545  A
C1901      H1907   1.082       .  S
C1902      C1903   1.399       .  A
C1903      H1908   1.083       .  S
C1904      H1909   1.079       .  S
C1911      C1912   1.406       .  A
C1911      C1916   1.384       .  A
C1911      H1917   1.079       .  S
C1912      C1913   1.393       .  A
C1913      C1914   1.381       .  A
C1913      H1918   1.084       .  S
C1914      C1915   1.405       .  A
C1914      H1919   1.077       .  S
C1915      C1916   1.397       .  A
C1916      H1920   1.084       .  S
