geometry optimzed in LAMMPS
_audit_creation_date              2020-11-30 
_audit_creation_method            'lammps2cif' 
_symmetry_space_group_name_H-M    'P1' 
_symmetry_Int_Tables_number       1 
_symmetry_cell_setting            triclinic 
loop_ 
_symmetry_equiv_pos_as_xyz 
  x,y,z 
_cell_length_a                    30.45895689 
_cell_length_b                    30.107445076178287 
_cell_length_c                    40.220394642566184 
_cell_angle_alpha                 90.65102318101881 
_cell_angle_beta                  89.84402642758316 
_cell_angle_gamma                 120.72656570221703 
loop_ 
_atom_site_label 
_atom_site_type_symbol 
_atom_site_fract_x 
_atom_site_fract_y 
_atom_site_fract_z 
_atom_site_charge 
C1          C  0.04545730  0.68396710  0.35535182     0.79800
N2          N  0.01242238  0.67105118  0.32949157    -0.78500
C3          C  0.02297328  0.70351317  0.30370742     0.82300
N4          N  0.06703268  0.75020517  0.30400625    -0.78400
C5          C  0.10074423  0.76330598  0.32960886     0.82300
N6          N  0.08962727  0.73022079  0.35518235    -0.80200
C7          C  0.20248764  0.89566677  0.30808440     0.79800
N8          N  0.23779419  0.90475635  0.33174912    -0.78500
C9          C  0.22951527  0.86848453  0.35454378     0.82300
N10         N  0.18454228  0.82278077  0.35387830    -0.78400
C11         C  0.14890465  0.81302357  0.33013022     0.82300
N12         N  0.15820157  0.84934319  0.30702411    -0.80200
C13         C  0.89644588  0.20137017  0.69226556     0.79800
N14         N  0.90941103  0.23719209  0.66822149    -0.78500
C15         C  0.87565484  0.23082168  0.64399480     0.82300
N16         N  0.82801214  0.18803866  0.64432141    -0.78400
C17         C  0.81452266  0.15211264  0.66847432     0.82300
N18         N  0.84882576  0.15910773  0.69249697    -0.80200
C19         C  0.68300227  0.05146833  0.64352763     0.79800
N20         N  0.67217523  0.01632923  0.66770690    -0.78500
C21         C  0.70609490  0.02446249  0.69213009     0.82300
N22         N  0.75213500  0.06890098  0.69212903    -0.78400
C23         C  0.76383566  0.10488947  0.66825535     0.82300
N24         N  0.72916986  0.09609476  0.64392152    -0.80200
O25         O  0.41854611  0.96521998  0.45661191    -0.74800
O26         O  0.52630005  0.01366748  0.52076287    -0.74900
O27         O  0.50801455  0.96744774  0.45996174    -0.74900
O28         O  0.43625155  0.01081170  0.51738804    -0.75000
O29         O  0.39648472  0.93297217  0.54042584    -0.74900
O30         O  0.46874034  0.88996450  0.48331236    -0.74900
O31         O  0.48655038  0.93615733  0.54422439    -0.74900
O32         O  0.37868053  0.88737536  0.47969954    -0.74900
Ni33       Ni  0.47368803  0.99202104  0.48784051     1.25400
Ni34       Ni  0.43128982  0.90885806  0.51277855     1.25400
C35         C  0.38102466  0.91854150  0.45740031     0.87300
C36         C  0.52368167  0.98308436  0.54355540     0.87300
C37         C  0.49972143  0.92127426  0.46172850     0.87300
C38         C  0.40461374  0.97901569  0.53851988     0.87500
O39         O  0.97399683  0.42499735  0.54302530    -0.74800
O40         O  0.01458034  0.53345548  0.48000364    -0.74900
O41         O  0.97433438  0.51476106  0.54176766    -0.74900
O42         O  0.01449264  0.44361245  0.48101746    -0.75000
O43         O  0.93575398  0.40269231  0.45973321    -0.74900
O44         O  0.89593138  0.47382504  0.52044253    -0.74900
O45         O  0.93609602  0.49205198  0.45883829    -0.74900
O46         O  0.89549951  0.38394041  0.52167955    -0.74900
Ni47       Ni  0.99716729  0.48062284  0.51227081     1.25400
Ni48       Ni  0.91305272  0.43660233  0.48943001     1.25400
C49         C  0.92788898  0.38678247  0.54305373     0.87300
C50         C  0.98177697  0.53069240  0.45890859     0.87300
C51         C  0.92873874  0.50644370  0.54113666     0.87300
C52         C  0.98181692  0.41234849  0.45973818     0.87500
C53         C  0.52575984  0.92152230  0.97713575     0.79800
N54         N  0.48254979  0.92421960  0.97683451    -0.78500
C55         C  0.47386201  0.95017490  0.00147879     0.82300
N56         N  0.50887593  0.97386165  0.02621748    -0.78400
C57         C  0.55234647  0.97174457  0.02642276     0.82300
N58         N  0.56064776  0.94599322  0.00168548    -0.80200
C59         C  0.37654541  0.98432036  0.02442899     0.79800
N60         N  0.34349048  0.96277369  0.99850108    -0.78500
C61         C  0.35191806  0.93712226  0.97374400     0.82300
N62         N  0.39394154  0.93246648  0.97518661    -0.78400
C63         C  0.42766369  0.95408975  0.00078860     0.82300
N64         N  0.41887630  0.98005606  0.02535770    -0.80200
C65         C  0.97610780  0.36596523  0.97680218     0.79800
N66         N  0.97350413  0.40973909  0.97457142    -0.78500
C67         C  0.94810009  0.42082404  0.99815329     0.82300
N68         N  0.92521972  0.38796809  0.02383252    -0.78400
C69         C  0.92723629  0.34418443  0.02599426     0.82300
N70         N  0.95256373  0.33365996  0.00248835    -0.80200
C71         C  0.92303956  0.52503964  0.02187944     0.79800
N72         N  0.92342862  0.48014193  0.02193528    -0.78500
C73         C  0.94657732  0.46884310  0.99698791     0.82300
N74         N  0.96953156  0.50285798  0.97184196    -0.78400
C75         C  0.96873015  0.54759078  0.97141734     0.82300
N76         N  0.94612105  0.55863041  0.99666678    -0.80200
C77         C  0.03636967  0.30846540  0.36087434     0.79800
N78         N  0.00290136  0.28604226  0.33520593    -0.78500
C79         C  0.01188107  0.26092229  0.31037565     0.82300
N80         N  0.05470479  0.25775751  0.31145304    -0.78400
C81         C  0.08869815  0.28034949  0.33684470     0.82300
N82         N  0.07953656  0.30584940  0.36137655    -0.80200
C83         C  0.19040772  0.25681570  0.30914594     0.79800
N84         N  0.22598501  0.28161892  0.33315552    -0.78500
C85         C  0.21771784  0.30575256  0.35888454     0.82300
N86         N  0.17238345  0.30435073  0.36070949    -0.78400
C87         C  0.13630118  0.27942295  0.33658350     0.82300
N88         N  0.14563107  0.25597589  0.31079363    -0.80200
O89         O  0.34239641  0.19844175  0.14759654    -0.74800
O90         O  0.30082490  0.08796548  0.20871862    -0.74900
O91         O  0.34423254  0.10946106  0.14733711    -0.74900
O92         O  0.29917737  0.17639865  0.20820524    -0.75000
O93         O  0.22122149  0.13371341  0.18579993    -0.74900
O94         O  0.26721175  0.06955801  0.12348826    -0.74900
O95         O  0.22384438  0.04536072  0.18477415    -0.74900
O96         O  0.26462965  0.15785708  0.12506984    -0.74900
Ni97       Ni  0.32442161  0.14440730  0.17878128     1.25400
Ni98       Ni  0.24144790  0.10000610  0.15393072     1.25400
C99         C  0.31009646  0.19693874  0.12662242     0.87300
C100        C  0.25540821  0.04890157  0.20710156     0.87300
C101        C  0.31344078  0.07968118  0.12467717     0.87300
C102        C  0.25298001  0.16629520  0.20696152     0.87500
C103        C  0.64763225  0.70610978  0.31029562     0.79800
N104        N  0.62765421  0.67399785  0.33656579    -0.78500
C105        C  0.60547104  0.68475257  0.36222686     0.82300
N106        N  0.60221126  0.72812318  0.36105879    -0.78400
C107        C  0.62161463  0.76053824  0.33477054     0.82300
N108        N  0.64428217  0.74936734  0.30944942    -0.80200
C109        C  0.59645510  0.86497965  0.35863709     0.79800
N110        N  0.61570313  0.89619473  0.33188039    -0.78500
C111        C  0.63713812  0.88417967  0.30640896     0.82300
N112        N  0.63844737  0.83985847  0.30740366    -0.78400
C113        C  0.61857364  0.80771444  0.33370882     0.82300
N114        N  0.59757862  0.82037310  0.35933037    -0.80200
O115        O  0.86235001  0.67779539  0.18672278    -0.74800
O116        O  0.75254400  0.63607889  0.12525613    -0.74900
O117        O  0.77281336  0.67653073  0.18779585    -0.74900
O118        O  0.84135623  0.63662170  0.12457003    -0.75000
O119        O  0.80143490  0.55703548  0.14492657    -0.74900
O120        O  0.73469615  0.59746415  0.20874698    -0.74900
O121        O  0.71243691  0.55680316  0.14623844    -0.74900
O122        O  0.82422386  0.59826084  0.20721192    -0.74900
Ni123      Ni  0.80862155  0.65955730  0.15537596     1.25400
Ni124      Ni  0.76677261  0.57457478  0.17757885     1.25400
C125        C  0.86159663  0.64516336  0.20712858     0.87300
C126        C  0.71467417  0.58960727  0.12523853     0.87300
C127        C  0.74220408  0.64334975  0.20883475     0.87300
C128        C  0.83262965  0.59021973  0.12420373     0.87500
O129        O  0.76523863  0.03763502  0.18469433    -0.74800
O130        O  0.84068030  0.15138675  0.12617338    -0.74900
O131        O  0.85727499  0.12606235  0.18724901    -0.74900
O132        O  0.74912785  0.06311716  0.12327325    -0.75000
O133        O  0.71149030  0.10283035  0.14641264    -0.74900
O134        O  0.82099330  0.16758415  0.20949275    -0.74900
O135        O  0.80294729  0.19151473  0.14842016    -0.74900
O136        O  0.72898010  0.07883446  0.20751481    -0.74900
Ni137      Ni  0.80434487  0.09302000  0.15454305     1.25400
Ni138      Ni  0.76483119  0.13663700  0.17882942     1.25400
C139        C  0.73460203  0.03957837  0.20577346     0.87300
C140        C  0.83391895  0.19000307  0.12750973     0.87300
C141        C  0.85716068  0.15756032  0.20881639     0.87300
C142        C  0.71292116  0.07296452  0.12408321     0.87500
C143        C  0.37497723  0.35624802  0.02791632     0.79800
N144        N  0.34072439  0.34418269  0.00297073    -0.78500
C145        C  0.35150638  0.37559440  0.97649958     0.82300
N146        N  0.39740961  0.42017724  0.97531677    -0.78400
C147        C  0.43222621  0.43277247  0.00009609     0.82300
N148        N  0.42085190  0.40077793  0.02637815    -0.80200
C149        C  0.56347187  0.53728455  0.02126300     0.79800
N150        N  0.51778074  0.49228831  0.02231688    -0.78500
C151        C  0.48160223  0.48110448  0.99869124     0.82300
N152        N  0.49109327  0.51514511  0.97392207    -0.78400
C153        C  0.53624334  0.56048052  0.97291269     0.82300
N154        N  0.57192065  0.57106261  0.99664838    -0.80200
C155        C  0.86363177  0.60047145  0.64082190     0.79800
N156        N  0.89550584  0.62063332  0.66733617    -0.78500
C157        C  0.88497945  0.64307440  0.69303168     0.82300
N158        N  0.84132290  0.64498264  0.69228846    -0.78400
C159        C  0.80867996  0.62439171  0.66592215     0.82300
N160        N  0.82015397  0.60245047  0.64023797    -0.80200
C161        C  0.70802231  0.65345079  0.68809682     0.79800
N162        N  0.67270677  0.62626225  0.66436595    -0.78500
C163        C  0.68045445  0.59835474  0.64101804     0.82300
N164        N  0.72521636  0.59855833  0.64113840    -0.78400
C165        C  0.76099185  0.62540170  0.66513373     0.82300
N166        N  0.75198386  0.65233564  0.68880206    -0.80200
O167        O  0.67432092  0.86578043  0.81131244    -0.74800
O168        O  0.63796070  0.75775586  0.87370846    -0.74900
O169        O  0.68001460  0.77905712  0.81240236    -0.74900
O170        O  0.63176893  0.84357726  0.87300186    -0.75000
O171        O  0.55412443  0.79984145  0.85002741    -0.74900
O172        O  0.60209780  0.73477197  0.78987245    -0.74900
O173        O  0.56004730  0.71326067  0.85156568    -0.74900
O174        O  0.59685844  0.82129761  0.78853697    -0.74900
Ni175      Ni  0.65877053  0.81322243  0.84339603     1.25400
Ni176      Ni  0.57548408  0.76568548  0.81919327     1.25400
C177        C  0.64202697  0.86101025  0.78912251     0.87300
C178        C  0.59312675  0.71775330  0.87309485     0.87300
C179        C  0.64886532  0.74661517  0.79093111     0.87300
C180        C  0.58491705  0.83153751  0.87191781     0.87500
C181        C  0.29914770  0.03042901  0.63678991     0.79800
N182        N  0.27976535  0.99819166  0.66292185    -0.78500
C183        C  0.26000520  0.00984780  0.68948064     0.82300
N184        N  0.25884164  0.05443758  0.68947392    -0.78400
C185        C  0.27871251  0.08751658  0.66345952     0.82300
N186        N  0.29930083  0.07558671  0.63731916    -0.80200
C187        C  0.24948307  0.18864308  0.68724765     0.79800
N188        N  0.25156219  0.14468522  0.68747676    -0.78500
C189        C  0.27770822  0.13580008  0.66344551     0.82300
N190        N  0.30285263  0.17175395  0.63948900    -0.78400
C191        C  0.30207256  0.21654995  0.63968731     0.82300
N192        N  0.27490578  0.22410937  0.66344582    -0.80200
O193        O  0.19501742  0.33938493  0.85485199    -0.74800
O194        O  0.08537922  0.29642374  0.79272747    -0.74900
O195        O  0.10658834  0.34045351  0.85426741    -0.74900
O196        O  0.17266960  0.29509074  0.79310076    -0.75000
O197        O  0.13224766  0.21667820  0.81560219    -0.74900
O198        O  0.06670487  0.26228584  0.87693142    -0.74900
O199        O  0.04428666  0.21819250  0.81556574    -0.74900
O200        O  0.15447524  0.26097666  0.87718282    -0.74900
Ni201      Ni  0.14145963  0.32067018  0.82297380     1.25400
Ni202      Ni  0.09805478  0.23674989  0.84714333     1.25400
C203        C  0.19222106  0.30749581  0.87676385     0.87300
C204        C  0.04714762  0.25025884  0.79381306     0.87300
C205        C  0.07577598  0.30877054  0.87580588     0.87300
C206        C  0.16225677  0.24815167  0.79370367     0.87500
O207        O  0.10574605  0.70521693  0.85109291    -0.74800
O208        O  0.17324488  0.81820541  0.79089301    -0.74900
O209        O  0.19551458  0.79688870  0.85190644    -0.74900
O210        O  0.08347822  0.72690463  0.79039398    -0.75000
O211        O  0.04515358  0.76513173  0.81434872    -0.74900
O212        O  0.15719556  0.83569636  0.87504496    -0.74900
O213        O  0.13446965  0.85626745  0.81429540    -0.74900
O214        O  0.06815885  0.74408821  0.87515865    -0.74900
Ni215      Ni  0.14091137  0.76045330  0.82022307     1.25400
Ni216      Ni  0.09986847  0.80157911  0.84557086     1.25400
C217        C  0.07631430  0.70633129  0.87341939     0.87300
C218        C  0.16463884  0.85566962  0.79231526     0.87300
C219        C  0.19480260  0.82797752  0.87366535     0.87300
C220        C  0.04576973  0.73449750  0.79224834     0.87500
O221        O  0.50425304  0.48703539  0.45852808    -0.74800
O222        O  0.43289719  0.37191427  0.51679319    -0.74900
O223        O  0.41292981  0.39752671  0.45657907    -0.74900
O224        O  0.52413464  0.46173300  0.51856259    -0.75000
O225        O  0.48695919  0.50102924  0.54283435    -0.74900
O226        O  0.37563441  0.43637283  0.48130861    -0.74900
O227        O  0.39655178  0.41178593  0.54133422    -0.74900
O228        O  0.46724866  0.52635684  0.48267099    -0.74900
Ni229      Ni  0.46978138  0.42809121  0.48667656     1.25400
Ni230      Ni  0.43025134  0.47026865  0.51285541     1.25400
C231        C  0.49799020  0.52594872  0.46103661     0.87300
C232        C  0.40353820  0.37332607  0.53909530     0.87300
C233        C  0.37593546  0.40615846  0.45881497     0.87300
C234        C  0.52368244  0.49200462  0.54100087     0.87500
C235        C  0.37542248  0.34666201  0.59655839    -0.20700
C236        C  0.37906549  0.33179473  0.56402918    -0.07300
C237        C  0.35939404  0.27883041  0.55664418     0.13600
C238        C  0.33531714  0.24216312  0.58193963    -0.20800
C239        C  0.33031338  0.25705534  0.61436449    -0.07300
C240        C  0.35180597  0.31044723  0.62181486     0.13600
C241        C  0.35182868  0.33046978  0.65641831    -0.24100
H242        H  0.39160532  0.38736015  0.60237212     0.14900
H243        H  0.31925923  0.20149863  0.57614130     0.14900
C244        C  0.36187018  0.26048091  0.52205733    -0.24100
H245        H  0.37513517  0.37331085  0.65794933     0.05100
H246        H  0.36822483  0.31498657  0.67432158     0.08300
H247        H  0.31251836  0.31942986  0.66388003     0.08300
H248        H  0.40226266  0.27612178  0.51474682     0.08300
H249        H  0.34305375  0.27343283  0.50419725     0.08300
H250        H  0.34228034  0.21767140  0.52043963     0.05100
C251        C  0.22826041  0.18812279  0.74691133    -0.20700
C252        C  0.22309037  0.19998056  0.71398570    -0.07300
C253        C  0.19507694  0.22474127  0.70754173     0.13600
C254        C  0.17588763  0.23978860  0.73429003    -0.20800
C255        C  0.18274011  0.22971699  0.76719328    -0.07300
C256        C  0.20824172  0.20257536  0.77365314     0.13600
C257        C  0.21624617  0.19073457  0.80863772    -0.24100
H258        H  0.24943303  0.16889430  0.75183108     0.14900
H259        H  0.15495083  0.25933462  0.72949767     0.14900
C260        C  0.18346655  0.23380999  0.67265601    -0.24100
H261        H  0.23876244  0.17111688  0.80918402     0.05100
H262        H  0.17882215  0.16480578  0.82045976     0.08300
H263        H  0.23719562  0.22715404  0.82337807     0.08300
H264        H  0.16508845  0.19687962  0.65832688     0.08300
H265        H  0.21885980  0.26265627  0.65997884     0.08300
H266        H  0.15695402  0.24891952  0.67255218     0.05100
C267        C  0.19466618  0.96680759  0.73353814    -0.20700
C268        C  0.23843976  0.97312822  0.71750507    -0.07300
C269        C  0.25953270  0.94301105  0.72782180     0.13600
C270        C  0.23516406  0.90633056  0.75283399    -0.20800
C271        C  0.19012452  0.89836198  0.76796999    -0.07300
C272        C  0.16997351  0.92969731  0.75840934     0.13600
C273        C  0.12148628  0.92325714  0.77311325    -0.24100
H274        H  0.17859240  0.98990671  0.72574592     0.14900
H275        H  0.25132699  0.88322772  0.76040098     0.14900
C276        C  0.30828128  0.94965284  0.71329761    -0.24100
H277        H  0.11037974  0.94938520  0.76146612     0.05100
H278        H  0.12687003  0.93269265  0.80009214     0.08300
H279        H  0.08959446  0.88295361  0.76913216     0.08300
H280        H  0.33910605  0.99084691  0.71502759     0.08300
H281        H  0.30224117  0.93634441  0.68699718     0.08300
H282        H  0.32148749  0.92655186  0.72674589     0.05100
C283        C  0.65417808  0.56452841  0.58316830    -0.20700
C284        C  0.64000654  0.56807792  0.61594894    -0.07300
C285        C  0.58731938  0.54371606  0.62396889     0.13600
C286        C  0.55079495  0.51818895  0.59893343    -0.20800
C287        C  0.56493611  0.51618349  0.56606429    -0.07300
C288        C  0.61726780  0.53916925  0.55802356     0.13600
C289        C  0.63444294  0.53923010  0.52284241    -0.24100
H290        H  0.69436114  0.58310255  0.57696202     0.14900
H291        H  0.51057417  0.49988927  0.60502522     0.14900
C292        C  0.56860419  0.54322270  0.65885191    -0.24100
H293        H  0.67673390  0.56127786  0.52077184     0.05100
H294        H  0.61910030  0.55733249  0.50619459     0.08300
H295        H  0.62070661  0.49904615  0.51429814     0.08300
H296        H  0.57790400  0.58259732  0.66651359     0.08300
H297        H  0.58620828  0.52849726  0.67637065     0.08300
H298        H  0.52648785  0.51787999  0.66075947     0.05100
C299        C  0.70655890  0.67575822  0.74737338    -0.20700
C300        C  0.69664854  0.68105499  0.71403827    -0.07300
C301        C  0.67312910  0.70986158  0.70631750     0.13600
C302        C  0.65876087  0.73114208  0.73219360    -0.20800
C303        C  0.66725436  0.72461936  0.76545990    -0.07300
C304        C  0.69164734  0.69684457  0.77326545     0.13600
C305        C  0.69912223  0.68672625  0.80870074    -0.24100
H306        H  0.72407693  0.65320819  0.75322751     0.14900
H307        H  0.64043480  0.75290263  0.72643648     0.14900
C308        C  0.66399488  0.71949629  0.67096470    -0.24100
H309        H  0.71754511  0.66310531  0.81033258     0.05100
H310        H  0.66131770  0.66522596  0.82099650     0.08300
H311        H  0.72378486  0.72382099  0.82204335     0.08300
H312        H  0.63485550  0.68294947  0.65883367     0.08300
H313        H  0.70025964  0.73656437  0.65678369     0.08300
H314        H  0.64964959  0.74676165  0.66982855     0.05100
C315        C  0.94481123  0.63751317  0.73192350    -0.20700
C316        C  0.92196430  0.66520430  0.72099200    -0.07300
C317        C  0.93881910  0.71491488  0.73450647     0.13600
C318        C  0.97880068  0.73598179  0.75794096    -0.20800
C319        C  0.00268591  0.70889151  0.76817790    -0.07300
C320        C  0.98469128  0.65846355  0.75536962     0.13600
C321        C  0.00631258  0.62590595  0.76671825    -0.24100
H322        H  0.93166093  0.59924239  0.72169358     0.14900
H323        H  0.99241710  0.77458362  0.76772732     0.14900
C324        C  0.91657848  0.74693383  0.72328669    -0.24100
H325        H  0.98517132  0.58631340  0.75579036     0.05100
H326        H  0.00367632  0.62233210  0.79420500     0.08300
H327        H  0.04674334  0.64362540  0.75890271     0.08300
H328        H  0.87554513  0.72749310  0.72998315     0.08300
H329        H  0.92081948  0.75224544  0.69595128     0.08300
H330        H  0.93605280  0.78582042  0.73526530     0.05100
C331        C  0.59914817  0.62657228  0.93532602    -0.20700
C332        C  0.54826031  0.59807832  0.94592561    -0.07300
C333        C  0.51188828  0.60854952  0.93202307     0.13600
C334        C  0.52766871  0.64723329  0.90795332    -0.20800
C335        C  0.57895790  0.67656363  0.89794340    -0.07300
C336        C  0.61526758  0.66612733  0.91211728     0.13600
C337        C  0.67112523  0.69592272  0.90312632    -0.24100
H338        H  0.62691492  0.61819237  0.94562090     0.14900
H339        H  0.49990031  0.65554746  0.89750665     0.14900
C340        C  0.45703236  0.58090608  0.94325252    -0.24100
H341        H  0.69284030  0.67987675  0.91504285     0.05100
H342        H  0.68858394  0.73669546  0.91161196     0.08300
H343        H  0.67555218  0.69438110  0.87593396     0.08300
H344        H  0.45530966  0.58564667  0.97055981     0.08300
H345        H  0.43822548  0.53927786  0.93668639     0.08300
H346        H  0.43494302  0.59638129  0.93115576     0.05100
C347        C  0.26077279  0.32868897  0.95925569    -0.20700
C348        C  0.31211532  0.36096590  0.95014340    -0.07300
C349        C  0.32370393  0.37625536  0.91648640     0.13600
C350        C  0.28373605  0.35817179  0.89312298    -0.20800
C351        C  0.23271129  0.32498314  0.90232972    -0.07300
C352        C  0.22108110  0.31064170  0.93597902     0.13600
C353        C  0.16682970  0.27810759  0.94798013    -0.24100
H354        H  0.25135356  0.31757078  0.98500211     0.14900
H355        H  0.29241691  0.36943141  0.86733820     0.14900
C356        C  0.37774054  0.41021415  0.90455136    -0.24100
H357        H  0.16485195  0.27383070  0.97542818     0.05100
H358        H  0.14880590  0.23873168  0.93688686     0.08300
H359        H  0.14478943  0.29668958  0.94105289     0.08300
H360        H  0.40084376  0.39238181  0.91060721     0.08300
H361        H  0.39483639  0.44900445  0.91638364     0.08300
H362        H  0.37941007  0.41572924  0.87721937     0.05100
C363        C  0.69070537  0.59595018  0.06777658    -0.20700
C364        C  0.67480860  0.57402542  0.09928275    -0.07300
C365        C  0.62230754  0.53905156  0.10485479     0.13600
C366        C  0.58722295  0.52748571  0.07881427    -0.20800
C367        C  0.60302687  0.55009455  0.04731249    -0.07300
C368        C  0.65595953  0.58448611  0.04172229     0.13600
C369        C  0.67708384  0.60871457  0.00841682    -0.24100
H370        H  0.73106217  0.62223005  0.06339445     0.14900
H371        H  0.54693804  0.50129852  0.08338615     0.14900
C372        C  0.60264555  0.51546441  0.13841813    -0.24100
H373        H  0.71950789  0.63053226  0.00822494     0.05100
H374        H  0.66487242  0.63667888  0.00245088     0.08300
H375        H  0.66398595  0.57824951  0.98881905     0.08300
H376        H  0.61417559  0.54659170  0.15736173     0.08300
H377        H  0.61815548  0.49050144  0.14518715     0.08300
H378        H  0.56031858  0.49110122  0.13869136     0.05100
C379        C  0.73390849  0.97561351  0.24392617    -0.20700
C380        C  0.70706916  0.99688859  0.22942355    -0.07300
C381        C  0.65594332  0.97877321  0.23903420     0.13600
C382        C  0.63366669  0.94092464  0.26366790    -0.20800
C383        C  0.66110023  0.92073419  0.27879593    -0.07300
C384        C  0.71192598  0.93843248  0.26887093     0.13600
C385        C  0.74434664  0.92088902  0.28592193    -0.24100
H386        H  0.77319992  0.98988864  0.23673895     0.14900
H387        H  0.59471807  0.92726529  0.27139900     0.14900
C388        C  0.62428765  0.99817407  0.22298817    -0.24100
H389        H  0.78397681  0.94075810  0.27617076     0.05100
H390        H  0.72781939  0.87893739  0.28186961     0.08300
H391        H  0.74627572  0.92930765  0.31300449     0.08300
H392        H  0.62357931  0.99260157  0.19561515     0.08300
H393        H  0.64032868  0.03970937  0.22897106     0.08300
H394        H  0.58421393  0.97712344  0.23195225     0.05100
C395        C  0.53951261  0.64433607  0.40639775    -0.20700
C396        C  0.58188441  0.64759414  0.39002840    -0.07300
C397        C  0.59931334  0.61407729  0.39983969     0.13600
C398        C  0.57177293  0.57621594  0.42369728    -0.20800
C399        C  0.52738209  0.57061276  0.43847931    -0.07300
C400        C  0.51208597  0.60652537  0.43045760     0.13600
C401        C  0.46614257  0.60466128  0.44609237    -0.24100
H402        H  0.52654259  0.67045805  0.39951231     0.14900
H403        H  0.58490593  0.55020679  0.43058091     0.14900
C404        C  0.64732493  0.61807715  0.38600360    -0.24100
H405        H  0.45928564  0.63483437  0.43607007     0.05100
H406        H  0.47214233  0.61148486  0.47331550     0.08300
H407        H  0.43145234  0.56651586  0.44103130     0.08300
H408        H  0.67983019  0.65833101  0.38881854     0.08300
H409        H  0.64189364  0.60609298  0.35944545     0.08300
H410        H  0.65765436  0.59247235  0.39922322     0.05100
C411        C  0.73712338  0.71150959  0.24146233    -0.20700
C412        C  0.71597707  0.65868297  0.23387784    -0.07300
C413        C  0.67081868  0.62220518  0.25058267     0.13600
C414        C  0.64927846  0.63948286  0.27460271    -0.20800
C415        C  0.67101470  0.69206488  0.28266457    -0.07300
C416        C  0.71540700  0.72864235  0.26558936     0.13600
C417        C  0.74108554  0.78558439  0.27321299    -0.24100
H418        H  0.77157292  0.73971599  0.22888870     0.14900
H419        H  0.61499119  0.61140051  0.28741470     0.14900
C420        C  0.64421970  0.56495217  0.24329566    -0.24100
H421        H  0.77697496  0.80822887  0.25893071     0.05100
H422        H  0.75069313  0.79288381  0.30009231     0.08300
H423        H  0.71511544  0.79958202  0.26624284     0.08300
H424        H  0.66883706  0.54951516  0.25083564     0.08300
H425        H  0.63497999  0.55754722  0.21641440     0.08300
H426        H  0.60782536  0.54310771  0.25719870     0.05100
C427        C  0.37851254  0.27072953  0.09561378    -0.20700
C428        C  0.32637290  0.24063389  0.10350450    -0.07300
C429        C  0.29160591  0.25297039  0.08906803     0.13600
C430        C  0.30947355  0.29250486  0.06562615    -0.20800
C431        C  0.36106963  0.32046883  0.05623720    -0.07300
C432        C  0.39640745  0.31048701  0.07224586     0.13600
C433        C  0.45252675  0.33967671  0.06396315    -0.24100
H434        H  0.40542846  0.26205498  0.10704388     0.14900
H435        H  0.28259253  0.30110544  0.05405402     0.14900
C436        C  0.23583730  0.22555307  0.09836226    -0.24100
H437        H  0.47386046  0.32498697  0.07791146     0.05100
H438        H  0.46948963  0.38113408  0.07068086     0.08300
H439        H  0.45787419  0.33558939  0.03701797     0.08300
H440        H  0.23197093  0.22768836  0.12571467     0.08300
H441        H  0.21644290  0.18461090  0.08995848     0.08300
H442        H  0.21565045  0.24328568  0.08648226     0.05100
C443        C  0.24469342  0.33421807  0.41754049    -0.20700
C444        C  0.25846095  0.33380973  0.38418371    -0.07300
C445        C  0.31107998  0.35927204  0.37573795     0.13600
C446        C  0.34792004  0.38278690  0.40081397    -0.20800
C447        C  0.33423120  0.38209263  0.43408079    -0.07300
C448        C  0.28197508  0.35780382  0.44267419     0.13600
C449        C  0.26532719  0.35457910  0.47832293    -0.24100
H450        H  0.20460633  0.31475776  0.42411287     0.14900
H451        H  0.38808974  0.40203283  0.39438115     0.14900
C452        C  0.32945877  0.36322071  0.34039373    -0.24100
H453        H  0.22307797  0.33195400  0.48067332     0.05100
H454        H  0.27882356  0.39390523  0.48849311     0.08300
H455        H  0.28128713  0.33542938  0.49343104     0.08300
H456        H  0.31125577  0.37905516  0.32429636     0.08300
H457        H  0.32065871  0.32473704  0.33101719     0.08300
H458        H  0.37147494  0.38923980  0.33845408     0.05100
C459        C  0.25055542  0.26431377  0.26568240    -0.20700
C460        C  0.20266375  0.23427870  0.28057344    -0.07300
C461        C  0.16970526  0.18307147  0.26941287     0.13600
C462        C  0.18663855  0.16240760  0.24450453    -0.20800
C463        C  0.23572321  0.19164214  0.23084213    -0.07300
C464        C  0.26754849  0.24380652  0.24086355     0.13600
C465        C  0.31892560  0.27848574  0.22517619    -0.24100
H466        H  0.27512188  0.30401618  0.27386043     0.14900
H467        H  0.16214706  0.12258456  0.23653551     0.14900
C468        C  0.11792277  0.14936932  0.28475324    -0.24100
H469        H  0.33641650  0.31901861  0.23429704     0.05100
H470        H  0.31459155  0.27851805  0.19776564     0.08300
H471        H  0.34573736  0.26512604  0.23135860     0.08300
H472        H  0.09329503  0.16595672  0.28018316     0.08300
H473        H  0.12205718  0.14652544  0.31194449     0.08300
H474        H  0.09830502  0.10963364  0.27402327     0.05100
C475        C  0.91502148  0.23492079  0.24226342    -0.20700
C476        C  0.89957570  0.18391200  0.23307128    -0.07300
C477        C  0.92371363  0.15943751  0.24794128     0.13600
C478        C  0.96114407  0.18610722  0.27253788    -0.20800
C479        C  0.97479829  0.23629961  0.28276708    -0.07300
C480        C  0.95238387  0.26152531  0.26672877     0.13600
C481        C  0.96827665  0.31681479  0.27458748    -0.24100
H482        H  0.89746671  0.25410944  0.23027542     0.14900
H483        H  0.97882895  0.16707477  0.28458134     0.14900
C484        C  0.90892072  0.10470340  0.23914820    -0.24100
H485        H  0.95024873  0.33157042  0.25741692     0.05100
H486        H  0.01034342  0.34190609  0.27226013     0.08300
H487        H  0.95618070  0.31976047  0.30007948     0.08300
H488        H  0.91811797  0.10224517  0.21272592     0.08300
H489        H  0.86741716  0.07838452  0.24338299     0.08300
H490        H  0.92989638  0.09107095  0.25450714     0.05100
C491        C  0.04416004  0.59858118  0.93566288    -0.20700
C492        C  0.99456576  0.58550814  0.94469939    -0.07300
C493        C  0.97134238  0.61000129  0.92887108     0.13600
C494        C  0.99921424  0.64854668  0.90550864    -0.20800
C495        C  0.04958727  0.66311452  0.89709170    -0.07300
C496        C  0.07217728  0.63699820  0.91215023     0.13600
C497        C  0.12586101  0.64888090  0.90561093    -0.24100
H498        H  0.06186801  0.57963886  0.94780751     0.14900
H499        H  0.98134125  0.66746783  0.89358691     0.14900
C500        C  0.91664414  0.59461029  0.93560773    -0.24100
H501        H  0.14806155  0.66125948  0.92919657     0.05100
H502        H  0.12472903  0.61350013  0.89618422     0.08300
H503        H  0.14685850  0.67950753  0.88736426     0.08300
H504        H  0.91242332  0.60449763  0.96159925     0.08300
H505        H  0.89131827  0.55242836  0.93124252     0.08300
H506        H  0.90362908  0.61495963  0.91907185     0.05100
C507        C  0.92643033  0.59102666  0.06073237    -0.20700
C508        C  0.90032327  0.53941650  0.04963500    -0.07300
C509        C  0.85288496  0.50416813  0.06421543     0.13600
C510        C  0.83224450  0.52190625  0.08865623    -0.20800
C511        C  0.85774753  0.57395471  0.09911714    -0.07300
C512        C  0.90617813  0.60872613  0.08538822     0.13600
C513        C  0.93762134  0.66418340  0.09701606    -0.24100
H514        H  0.96323896  0.61787024  0.04998802     0.14900
H515        H  0.79535653  0.49498693  0.09923285     0.14900
C516        C  0.82309371  0.44825507  0.05359668    -0.24100
H517        H  0.97602478  0.68426790  0.08537270     0.05100
H518        H  0.94311385  0.66571010  0.12438410     0.08300
H519        H  0.91843717  0.68573809  0.09020048     0.08300
H520        H  0.84511309  0.42955167  0.06003360     0.08300
H521        H  0.81584072  0.44514452  0.02638977     0.08300
H522        H  0.78565992  0.42687160  0.06639817     0.05100
C523        C  0.00995341  0.37279912  0.91915697    -0.20700
C524        C  0.00365279  0.35275511  0.95141966    -0.07300
C525        C  0.02303110  0.31970230  0.95846714     0.13600
C526        C  0.04577354  0.30634612  0.93303531    -0.20800
C527        C  0.05154346  0.32585490  0.90088863    -0.07300
C528        C  0.03377931  0.35996413  0.89385424     0.13600
C529        C  0.03803737  0.38146708  0.85956942    -0.24100
H530        H  0.99538239  0.39801213  0.91347316     0.14900
H531        H  0.05956339  0.28040142  0.93843598     0.14900
C532        C  0.02163411  0.29894314  0.99271994    -0.24100
H533        H  0.01964014  0.40512513  0.85811621     0.05100
H534        H  0.01904761  0.34939760  0.84113633     0.08300
H535        H  0.07881405  0.40666379  0.85287358     0.08300
H536        H  0.98173676  0.27060202  0.99981458     0.08300
H537        H  0.03926404  0.33125096  0.01109724     0.08300
H538        H  0.04323969  0.27840061  0.99383658     0.05100
C539        C  0.83257149  0.25335468  0.08973951    -0.20700
C540        C  0.86029707  0.23251076  0.10363862    -0.07300
C541        C  0.91133474  0.25149032  0.09366289     0.13600
C542        C  0.93251681  0.28934187  0.06906675    -0.20800
C543        C  0.90407772  0.30859743  0.05414703    -0.07300
C544        C  0.85362037  0.29078586  0.06485970     0.13600
C545        C  0.82080782  0.30885007  0.04903532    -0.24100
H546        H  0.79347514  0.23874350  0.09743001     0.14900
H547        H  0.97148908  0.30363711  0.06110248     0.14900
C548        C  0.94403696  0.23292617  0.10917555    -0.24100
H549        H  0.78159696  0.28909272  0.05947709     0.05100
H550        H  0.81776527  0.30087764  0.02185865     0.08300
H551        H  0.83789017  0.35078343  0.05355450     0.08300
H552        H  0.92859927  0.19155255  0.10298245     0.08300
H553        H  0.94510116  0.23824238  0.13659282     0.08300
H554        H  0.98394421  0.25468529  0.09993550     0.05100
C555        C  0.30366418  0.86300626  0.93505056    -0.20700
C556        C  0.31402450  0.91162628  0.94651809    -0.07300
C557        C  0.28710419  0.93373814  0.93239192     0.13600
C558        C  0.24957477  0.90585242  0.90813726    -0.20800
C559        C  0.23782938  0.85634746  0.89752391    -0.07300
C560        C  0.26571519  0.83488174  0.91105455     0.13600
C561        C  0.25378052  0.78120768  0.90207524    -0.24100
H562        H  0.32410699  0.84593730  0.94590149     0.14900
H563        H  0.22883221  0.92276625  0.89754825     0.14900
C564        C  0.29804392  0.98696207  0.94213008    -0.24100
H565        H  0.27775129  0.76988829  0.91622250     0.05100
H566        H  0.26075972  0.77861436  0.87523927     0.08300
H567        H  0.21340098  0.75356929  0.90818570     0.08300
H568        H  0.33944551  0.01542428  0.93945890     0.08300
H569        H  0.28590603  0.98693833  0.96812215     0.08300
H570        H  0.27682397  0.99972152  0.92626867     0.05100
C571        C  0.33945876  0.03753690  0.04138239    -0.20700
C572        C  0.36548777  0.01229648  0.05084397    -0.07300
C573        C  0.37690917  0.01199159  0.08498964     0.13600
C574        C  0.35984601  0.03467633  0.10858615    -0.20800
C575        C  0.33173527  0.05755659  0.09898110    -0.07300
C576        C  0.32255692  0.06016069  0.06485546     0.13600
C577        C  0.29633322  0.08812021  0.05285735    -0.24100
H578        H  0.33213004  0.03957452  0.01528533     0.14900
H579        H  0.36763160  0.03370615  0.13477443     0.14900
C580        C  0.40597547  0.98712236  0.09696725    -0.24100
H581        H  0.29537579  0.08915531  0.02528022     0.05100
H582        H  0.31705171  0.12864525  0.06225945     0.08300
H583        H  0.25625069  0.06831917  0.06165972     0.08300
H584        H  0.44515346  0.00808262  0.08665028     0.08300
H585        H  0.38618616  0.94591350  0.08902226     0.08300
H586        H  0.40945376  0.98865122  0.12449909     0.05100
C587        C  0.57042514  0.84116936  0.93090117    -0.20700
C588        C  0.56583041  0.85220930  0.89783327    -0.07300
C589        C  0.54439380  0.88293130  0.89060675     0.13600
C590        C  0.52973356  0.90361549  0.91699438    -0.20800
C591        C  0.53644085  0.89440493  0.95026421    -0.07300
C592        C  0.55584947  0.86162067  0.95724242     0.13600
C593        C  0.56034675  0.84700262  0.99228880    -0.24100
H594        H  0.58589023  0.81653946  0.93612019     0.14900
H595        H  0.51473563  0.92858688  0.91166568     0.14900
C596        C  0.53906560  0.89564193  0.85528272    -0.24100
H597        H  0.57203791  0.81758326  0.99272190     0.05100
H598        H  0.52289596  0.83050685  0.00499892     0.08300
H599        H  0.58962985  0.88128475  0.00634024     0.08300
H600        H  0.51306110  0.85962683  0.84126969     0.08300
H601        H  0.57707013  0.91538528  0.84310376     0.08300
H602        H  0.52309676  0.92151667  0.85411078     0.05100
C603        C  0.62116705  0.02202988  0.10937486    -0.20700
C604        C  0.67213921  0.04932667  0.09885762    -0.07300
C605        C  0.68336218  0.05292347  0.06456644     0.13600
C606        C  0.64321938  0.02788761  0.04162684    -0.20800
C607        C  0.59217495  0.99943111  0.05206995    -0.07300
C608        C  0.58096426  0.99636654  0.08641317     0.13600
C609        C  0.52721215  0.96402374  0.09911991    -0.24100
H610        H  0.61293382  0.01942820  0.13575558     0.14900
H611        H  0.65173923  0.03049669  0.01528195     0.14900
C612        C  0.73743385  0.08421371  0.05200474    -0.24100
H613        H  0.52586302  0.96387994  0.12672510     0.05100
H614        H  0.51058603  0.92347752  0.09026375     0.08300
H615        H  0.50354681  0.97966443  0.09015156     0.08300
H616        H  0.76021811  0.06723482  0.06059815     0.08300
H617        H  0.75518291  0.12468151  0.06129512     0.08300
H618        H  0.73886864  0.08505479  0.02440739     0.05100
C619        C  0.86046331  0.51464012  0.56935147    -0.20700
C620        C  0.91301711  0.53377534  0.56496427    -0.07300
C621        C  0.94864139  0.57770483  0.58373374     0.13600
C622        C  0.93064898  0.59920804  0.60717581    -0.20800
C623        C  0.87826489  0.57846747  0.61276189    -0.07300
C624        C  0.84254301  0.53630062  0.59293621     0.13600
C625        C  0.78567342  0.51244572  0.59715598    -0.24100
H626        H  0.83290844  0.48149861  0.55483125     0.14900
H627        H  0.95807427  0.63239516  0.62172458     0.14900
C628        C  0.00571378  0.60283226  0.57956374    -0.24100
H629        H  0.76377950  0.47831143  0.58053844     0.05100
H630        H  0.77426343  0.54095745  0.59086963     0.08300
H631        H  0.77474708  0.49947636  0.62317070     0.08300
H632        H  0.01622841  0.61390180  0.55322302     0.08300
H633        H  0.01851387  0.57605926  0.58749800     0.08300
H634        H  0.02697900  0.63848903  0.59500185     0.05100
C635        C  0.02789516  0.36725040  0.44368928    -0.20700
C636        C  0.99751743  0.38770476  0.43431759    -0.07300
C637        C  0.98311788  0.38500612  0.40068462     0.13600
C638        C  0.99764928  0.35998251  0.37756777    -0.20800
C639        C  0.02615117  0.33734141  0.38689886    -0.07300
C640        C  0.04229793  0.34180263  0.42046732     0.13600
C641        C  0.07308560  0.31866944  0.43244530    -0.24100
H642        H  0.03938300  0.37016731  0.46949186     0.14900
H643        H  0.98663450  0.35830483  0.35184686     0.14900
C644        C  0.95380657  0.40980269  0.38863880    -0.24100
H645        H  0.07963185  0.32361196  0.45973683     0.05100
H646        H  0.11113786  0.33801243  0.42038311     0.08300
H647        H  0.05251565  0.27661181  0.42669603     0.08300
H648        H  0.97445052  0.45141068  0.39572755     0.08300
H649        H  0.91494835  0.39020591  0.39952207     0.08300
H650        H  0.94921650  0.40703628  0.36117177     0.05100
C651        C  0.32776563  0.95667505  0.57166939    -0.20700
C652        C  0.37663020  0.99484930  0.56125087    -0.07300
C653        C  0.39821544  0.04577828  0.57419300     0.13600
C654        C  0.37077139  0.05662076  0.59772667    -0.20800
C655        C  0.32304626  0.01780059  0.60920708    -0.07300
C656        C  0.30075740  0.96731839  0.59555698     0.13600
C657        C  0.24827256  0.92460065  0.60553274    -0.24100
H658        H  0.31083450  0.91787755  0.56138789     0.14900
H659        H  0.38769561  0.09520201  0.60834268     0.14900
C660        C  0.45106048  0.08829833  0.56484610    -0.24100
H661        H  0.23545478  0.88905973  0.59026157     0.05100
H662        H  0.22014558  0.93724183  0.60211136     0.08300
H663        H  0.24835509  0.91403140  0.63183491     0.08300
H664        H  0.45226896  0.09693668  0.53800446     0.08300
H665        H  0.47928063  0.07643031  0.57044067     0.08300
H666        H  0.46262178  0.12464587  0.57889001     0.05100
C667        C  0.53154593  0.84055818  0.40319152    -0.20700
C668        C  0.57448816  0.87958859  0.38675841    -0.07300
C669        C  0.59522756  0.93158634  0.39739325     0.13600
C670        C  0.57075114  0.94318884  0.42264464    -0.20800
C671        C  0.52615258  0.90457652  0.43791642    -0.07300
C672        C  0.50699370  0.85218884  0.42856223     0.13600
C673        C  0.45993419  0.80824313  0.44415146    -0.24100
H674        H  0.51613272  0.80068715  0.39543232     0.14900
H675        H  0.58645279  0.98316120  0.43025396     0.14900
C676        C  0.64384526  0.97526188  0.38303158    -0.24100
H677        H  0.44998731  0.77029691  0.43298949     0.05100
H678        H  0.42679588  0.81355319  0.44043085     0.08300
H679        H  0.46656971  0.80655629  0.47111118     0.08300
H680        H  0.63780177  0.98166070  0.35675873     0.08300
H681        H  0.67485610  0.96624682  0.38470375     0.08300
H682        H  0.65676365  0.01223820  0.39665503     0.05100
C683        C  0.59226601  0.00561081  0.62637036    -0.20700
C684        C  0.64350173  0.03941568  0.61756753    -0.07300
C685        C  0.65482485  0.05660212  0.58427659     0.13600
C686        C  0.61479743  0.03827232  0.56083857    -0.20800
C687        C  0.56401065  0.00245856  0.56954049    -0.07300
C688        C  0.55262638  0.98665894  0.60297673     0.13600
C689        C  0.49872682  0.95059814  0.61459262    -0.24100
H690        H  0.58300435  0.99304198  0.65189754     0.14900
H691        H  0.62342661  0.05081706  0.53527650     0.14900
C692        C  0.70876154  0.09236153  0.57277617    -0.24100
H693        H  0.49679137  0.94549002  0.64197182     0.05100
H694        H  0.48354577  0.91180100  0.60305664     0.08300
H695        H  0.47400905  0.96638171  0.60795303     0.08300
H696        H  0.73252873  0.07488118  0.57771064     0.08300
H697        H  0.72512623  0.13017987  0.58590892     0.08300
H698        H  0.71042511  0.09981229  0.54568223     0.05100
C699        C  0.65460762  0.93276385  0.70879677    -0.20700
C700        C  0.69230552  0.98365381  0.71746623    -0.07300
C701        C  0.71354588  0.99367180  0.74993637     0.13600
C702        C  0.69615039  0.95279165  0.77252460    -0.20800
C703        C  0.65774755  0.90219718  0.76394812    -0.07300
C704        C  0.63690083  0.89213197  0.73141604     0.13600
C705        C  0.59684754  0.83871267  0.71975277    -0.24100
H706        H  0.63857497  0.92444074  0.68391654     0.14900
H707        H  0.71227318  0.96064386  0.79737676     0.14900
C708        C  0.75331639  0.04717178  0.76160720    -0.24100
H709        H  0.58742075  0.83784624  0.69300119     0.05100
H710        H  0.56100451  0.82524980  0.73392222     0.08300
H711        H  0.61089972  0.81159231  0.72311128     0.08300
H712        H  0.73868005  0.07396916  0.75875189     0.08300
H713        H  0.78897274  0.06118018  0.74711307     0.08300
H714        H  0.76327984  0.04784451  0.78822927     0.05100
C715        C  0.95130088  0.33923741  0.58205917    -0.20700
C716        C  0.91270496  0.34555616  0.56812572    -0.07300
C717        C  0.86170884  0.31348045  0.57906851     0.13600
C718        C  0.85119536  0.27654079  0.60364071    -0.20800
C719        C  0.88997394  0.27056167  0.61782459    -0.07300
C720        C  0.94086974  0.30236342  0.60651246     0.13600
C721        C  0.98459831  0.29702941  0.61885359    -0.24100
H722        H  0.99025167  0.36320494  0.57350786     0.14900
H723        H  0.81224997  0.25255460  0.61218773     0.14900
C724        C  0.81815842  0.31852580  0.56589392    -0.24100
H725        H  0.02070943  0.32282933  0.60551898     0.05100
H726        H  0.97566114  0.25678930  0.61464814     0.08300
H727        H  0.99184727  0.30774284  0.64558860     0.08300
H728        H  0.81237779  0.30844544  0.53900827     0.08300
H729        H  0.82640821  0.35864368  0.56987556     0.08300
H730        H  0.78163569  0.29212095  0.57862029     0.05100
C731        C  0.92029544  0.20703967  0.75165897    -0.20700
C732        C  0.93392956  0.20877038  0.71810159    -0.07300
C733        C  0.98380613  0.22001546  0.70997881     0.13600
C734        C  0.01996149  0.23381025  0.73535537    -0.20800
C735        C  0.00676391  0.23367050  0.76870534    -0.07300
C736        C  0.95619648  0.21897607  0.77717143     0.13600
C737        C  0.94073658  0.21776542  0.81290975    -0.24100
H738        H  0.88185665  0.19770565  0.75786250     0.14900
H739        H  0.05857687  0.24369828  0.72911575     0.14900
C740        C  0.99970464  0.21557476  0.67518347    -0.24100
H741        H  0.90007665  0.20684286  0.81508061     0.05100
H742        H  0.96464140  0.25647715  0.82459684     0.08300
H743        H  0.94591091  0.18906089  0.82674518     0.08300
H744        H  0.03021692  0.25410152  0.66667650     0.08300
H745        H  0.96756241  0.19942343  0.65724871     0.08300
H746        H  0.01491310  0.18899771  0.67504571     0.05100
C747        C  0.25305805  0.85699888  0.41178204    -0.20700
C748        C  0.26888889  0.87894515  0.38012035    -0.07300
C749        C  0.32189520  0.91034666  0.37366609     0.13600
C750        C  0.35696877  0.92116776  0.39937578    -0.20800
C751        C  0.34114891  0.90115654  0.43132414    -0.07300
C752        C  0.28848122  0.86760781  0.43747852     0.13600
C753        C  0.26914871  0.84446527  0.47121847    -0.24100
H754        H  0.21262391  0.83238658  0.41672702     0.14900
H755        H  0.39744282  0.94581841  0.39447886     0.14900
C756        C  0.34245551  0.93166843  0.33966890    -0.24100
H757        H  0.22677350  0.82101516  0.47186167     0.05100
H758        H  0.28187074  0.87566619  0.49027663     0.08300
H759        H  0.28384341  0.81865488  0.47763762     0.08300
H760        H  0.33266718  0.96121209  0.33297470     0.08300
H761        H  0.32654923  0.89985903  0.32090333     0.08300
H762        H  0.38473993  0.95077413  0.33874587     0.05100
C763        C  0.24685885  0.02383581  0.26586780    -0.20700
C764        C  0.23911349  0.00850139  0.23233026    -0.07300
C765        C  0.21746003  0.95580348  0.22377996     0.13600
C766        C  0.20462341  0.91958599  0.24915300    -0.20800
C767        C  0.21352089  0.93504404  0.28272091    -0.07300
C768        C  0.23419280  0.98778577  0.29124331     0.13600
C769        C  0.24170529  0.00623474  0.32694226    -0.24100
H770        H  0.26291596  0.06434775  0.27220139     0.14900
H771        H  0.18897119  0.87917733  0.24271464     0.14900
C772        C  0.21005701  0.93804769  0.18798823    -0.24100
H773        H  0.25446615  0.04795836  0.32885996     0.05100
H774        H  0.27134761  0.00090402  0.33902373     0.08300
H775        H  0.20514952  0.98437464  0.34065375     0.08300
H776        H  0.24717361  0.95845434  0.17473684     0.08300
H777        H  0.18246810  0.94632388  0.17571656     0.08300
H778        H  0.19491372  0.89584965  0.18577585     0.05100
C779        C  0.04972405  0.60743220  0.42923595    -0.20700
C780        C  0.99730122  0.57215623  0.43389850    -0.07300
C781        C  0.96140764  0.57707093  0.41424580     0.13600
C782        C  0.97897990  0.61472899  0.38962361    -0.20800
C783        C  0.03123782  0.64833243  0.38388513    -0.07300
C784        C  0.06724902  0.64563798  0.40472450     0.13600
C785        C  0.12407281  0.68151812  0.40099344    -0.24100
H786        H  0.07745888  0.60460975  0.44447618     0.14900
H787        H  0.95122529  0.61772882  0.37449299     0.14900
C788        C  0.90438768  0.54358402  0.41882109    -0.24100
H789        H  0.14617089  0.67206716  0.41852091     0.05100
H790        H  0.13428722  0.72192605  0.40642917     0.08300
H791        H  0.13601039  0.67847098  0.37537077     0.08300
H792        H  0.89415902  0.54638383  0.44496945     0.08300
H793        H  0.89153065  0.50287373  0.41210461     0.08300
H794        H  0.88290405  0.55567842  0.40266787     0.05100
C795        C  0.96886906  0.72431720  0.26920693    -0.20700
C796        C  0.98457453  0.68931746  0.27704839    -0.07300
C797        C  0.96097122  0.64040727  0.26097078     0.13600
C798        C  0.92126291  0.62729521  0.23811173    -0.20800
C799        C  0.90463572  0.66184570  0.23079845    -0.07300
C800        C  0.92901557  0.71119504  0.24648867     0.13600
C801        C  0.91180228  0.74940830  0.24073403    -0.24100
H802        H  0.98677406  0.76155600  0.28181710     0.14900
H803        H  0.90313813  0.58982815  0.22578603     0.14900
C804        C  0.97832540  0.60241628  0.26715226    -0.24100
H805        H  0.93267811  0.78424676  0.25692491     0.05100
H806        H  0.87042614  0.73123451  0.24627907     0.08300
H807        H  0.91909462  0.76258862  0.21459328     0.08300
H808        H  0.97050725  0.58905394  0.29323699     0.08300
H809        H  0.01988216  0.62096208  0.26215821     0.08300
H810        H  0.95808056  0.56771559  0.25077412     0.05100
loop_ 
_geom_bond_atom_site_label_1 
_geom_bond_atom_site_label_2 
_geom_bond_distance 
_geom_bond_site_symmetry_2 
_ccdc_geom_bond_type 
C1            N2   1.357       .  A
C1            N6   1.355       .  A
C1          C783   1.485       .  S
N2            C3   1.354       .  A
C3            N4   1.360       .  A
C3          C796   1.478   1_455  S
N4            C5   1.361       .  A
C5            N6   1.357       .  A
C5           C11   1.466       .  S
C7            N8   1.355       .  A
C7           N12   1.358       .  A
C7          C767   1.476       .  S
N8            C9   1.355       .  A
C9           N10   1.358       .  A
C9          C748   1.486       .  S
N10          C11   1.360       .  A
C11          N12   1.358       .  A
C13          N14   1.357       .  A
C13          N18   1.355       .  A
C13         C732   1.475       .  S
N14          C15   1.358       .  A
C15          N16   1.362       .  A
C15         C719   1.491       .  S
N16          C17   1.360       .  A
C17          N18   1.359       .  A
C17          C23   1.470       .  S
C19          N20   1.356       .  A
C19          N24   1.361       .  A
C19         C684   1.490       .  S
N20          C21   1.354       .  A
C21          N22   1.356       .  A
C21         C700   1.491   1_545  S
N22          C23   1.360       .  A
C23          N24   1.363       .  A
O25         Ni33   1.911       .  S
O25          C35   1.281       .  A
O26         Ni33   1.916   1_545  S
O26          C36   1.280   1_545  A
O27         Ni33   1.914       .  S
O27          C37   1.282       .  A
O28         Ni33   1.916   1_545  S
O28          C38   1.280   1_545  A
O29         Ni34   1.910       .  S
O29          C38   1.281       .  A
O30         Ni34   1.916       .  S
O30          C37   1.280       .  A
O31         Ni34   1.919       .  S
O31          C36   1.282       .  A
O32         Ni34   1.921       .  S
O32          C35   1.281       .  A
Ni33        Ni34   2.385       .  S
C35         C751   1.481       .  S
C36         C687   1.484   1_565  S
C37         C671   1.489       .  S
C38         C652   1.480       .  S
O39         Ni47   1.915       .  S
O39          C49   1.283       .  A
O40         Ni47   1.918   1_455  S
O40          C50   1.282   1_455  A
O41         Ni47   1.909       .  S
O41          C51   1.279       .  A
O42         Ni47   1.915   1_455  S
O42          C52   1.280   1_455  A
O43         Ni48   1.907       .  S
O43          C52   1.279       .  A
O44         Ni48   1.909       .  S
O44          C51   1.280       .  A
O45         Ni48   1.907       .  S
O45          C50   1.279       .  A
O46         Ni48   1.913       .  S
O46          C49   1.279       .  A
Ni47        Ni48   2.383       .  S
C49         C716   1.487       .  S
C50         C780   1.489       .  S
C51         C620   1.486       .  S
C52         C636   1.472       .  S
C53          N54   1.360       .  A
C53          N58   1.355   1_556  A
C53         C591   1.480       .  S
N54          C55   1.362   1_556  A
C55          N56   1.360       .  A
C55          C63   1.471       .  S
N56          C57   1.358       .  A
C57          N58   1.355       .  A
C57         C607   1.478       .  S
C59          N60   1.358   1_554  A
C59          N64   1.360       .  A
C59         C572   1.490   1_565  S
N60          C61   1.356       .  A
C61          N62   1.358       .  A
C61         C556   1.484       .  S
N62          C63   1.359   1_556  A
C63          N64   1.362       .  A
C65          N66   1.364       .  A
C65          N70   1.354   1_556  A
C65         C524   1.494   1_655  S
N66          C67   1.365       .  A
C67          N68   1.359   1_556  A
C67          C73   1.471       .  S
N68          C69   1.354       .  A
C69          N70   1.352       .  A
C69         C543   1.476       .  S
C71          N72   1.358       .  A
C71          N76   1.356   1_554  A
C71         C508   1.484       .  S
N72          C73   1.361   1_554  A
C73          N74   1.360       .  A
N74          C75   1.360       .  A
C75          N76   1.356       .  A
C75         C492   1.477       .  S
C77          N78   1.359       .  A
C77          N82   1.357       .  A
C77         C639   1.484       .  S
N78          C79   1.355       .  A
C79          N80   1.356       .  A
C79         C479   1.480   1_455  S
N80          C81   1.359       .  A
C81          N82   1.357       .  A
C81          C87   1.464       .  S
C83          N84   1.352       .  A
C83          N88   1.353       .  A
C83         C460   1.469       .  S
N84          C85   1.353       .  A
C85          N86   1.362       .  A
C85         C444   1.485       .  S
N86          C87   1.363       .  A
C87          N88   1.357       .  A
O89         Ni97   1.911       .  S
O89          C99   1.281       .  A
O90         Ni97   1.910       .  S
O90         C100   1.280       .  A
O91         Ni97   1.920       .  S
O91         C101   1.281       .  A
O92         Ni97   1.909       .  S
O92         C102   1.280       .  A
O93         Ni98   1.912       .  S
O93         C102   1.280       .  A
O94         Ni98   1.913       .  S
O94         C101   1.280       .  A
O95         Ni98   1.917       .  S
O95         C100   1.281       .  A
O96         Ni98   1.914       .  S
O96          C99   1.281       .  A
Ni97        Ni98   2.388       .  S
C99         C428   1.483       .  S
C100        C764   1.471       .  S
C101        C575   1.477       .  S
C102        C463   1.474       .  S
C103        N104   1.356       .  A
C103        N108   1.358       .  A
C103        C415   1.488       .  S
N104        C105   1.356       .  A
C105        N106   1.361       .  A
C105        C396   1.490       .  S
N106        C107   1.360       .  A
C107        N108   1.361       .  A
C107        C113   1.471       .  S
C109        N110   1.357       .  A
C109        N114   1.361       .  A
C109        C668   1.485       .  S
N110        C111   1.355       .  A
C111        N112   1.356       .  A
C111        C383   1.476       .  S
N112        C113   1.358       .  A
C113        N114   1.361       .  A
O115       Ni123   1.910       .  S
O115        C125   1.278       .  A
O116       Ni123   1.909       .  S
O116        C126   1.280       .  A
O117       Ni123   1.923       .  S
O117        C127   1.283       .  A
O118       Ni123   1.919       .  S
O118        C128   1.282       .  A
O119       Ni124   1.914       .  S
O119        C128   1.281       .  A
O120       Ni124   1.914       .  S
O120        C127   1.280       .  A
O121       Ni124   1.925       .  S
O121        C126   1.282       .  A
O122       Ni124   1.926       .  S
O122        C125   1.283       .  A
Ni123      Ni124   2.384       .  S
C125        C799   1.483       .  S
C126        C364   1.483       .  S
C127        C412   1.493       .  S
C128        C511   1.487       .  S
O129       Ni137   1.918       .  S
O129        C139   1.282       .  A
O130       Ni137   1.915       .  S
O130        C140   1.281       .  A
O131       Ni137   1.914       .  S
O131        C141   1.279       .  A
O132       Ni137   1.913       .  S
O132        C142   1.280       .  A
O133       Ni138   1.915       .  S
O133        C142   1.280       .  A
O134       Ni138   1.916       .  S
O134        C141   1.282       .  A
O135       Ni138   1.911       .  S
O135        C140   1.280       .  A
O136       Ni138   1.910       .  S
O136        C139   1.279       .  A
Ni137      Ni138   2.389       .  S
C139        C380   1.477   1_545  S
C140        C540   1.476       .  S
C141        C476   1.481       .  S
C142        C604   1.472       .  S
C143        N144   1.355       .  A
C143        N148   1.357       .  A
C143        C431   1.482       .  S
N144        C145   1.356   1_554  A
C145        N146   1.357       .  A
C145        C348   1.488       .  S
N146        C147   1.359   1_556  A
C147        N148   1.358       .  A
C147        C151   1.465   1_554  S
C149        N150   1.360       .  A
C149        N154   1.354   1_554  A
C149        C367   1.490       .  S
N150        C151   1.360   1_554  A
C151        N152   1.358       .  A
N152        C153   1.356       .  A
C153        N154   1.356       .  A
C153        C332   1.482       .  S
C155        N156   1.355       .  A
C155        N160   1.356       .  A
C155        C623   1.481       .  S
N156        C157   1.353       .  A
C157        N158   1.360       .  A
C157        C316   1.483       .  S
N158        C159   1.363       .  A
C159        N160   1.358       .  A
C159        C165   1.469       .  S
C161        N162   1.351       .  A
C161        N166   1.357       .  A
C161        C300   1.474       .  S
N162        C163   1.352       .  A
C163        N164   1.360       .  A
C163        C284   1.484       .  S
N164        C165   1.364       .  A
C165        N166   1.359       .  A
O167       Ni175   1.916       .  S
O167        C177   1.281       .  A
O168       Ni175   1.907       .  S
O168        C178   1.279       .  A
O169       Ni175   1.918       .  S
O169        C179   1.280       .  A
O170       Ni175   1.915       .  S
O170        C180   1.281       .  A
O171       Ni176   1.915       .  S
O171        C180   1.279       .  A
O172       Ni176   1.912       .  S
O172        C179   1.280       .  A
O173       Ni176   1.922       .  S
O173        C178   1.283       .  A
O174       Ni176   1.917       .  S
O174        C177   1.281       .  A
Ni175      Ni176   2.388       .  S
C177        C703   1.487       .  S
C178        C335   1.484       .  S
C179        C303   1.470       .  S
C180        C588   1.471       .  S
C181        N182   1.353   1_545  A
C181        N186   1.357       .  A
C181        C655   1.474       .  S
N182        C183   1.353   1_565  A
C183        N184   1.361       .  A
C183        C268   1.485   1_545  S
N184        C185   1.363       .  A
C185        N186   1.359       .  A
C185        C189   1.470       .  S
C187        N188   1.357       .  A
C187        N192   1.353       .  A
C187        C252   1.479       .  S
N188        C189   1.359       .  A
C189        N190   1.364       .  A
N190        C191   1.361       .  A
C191        N192   1.354       .  A
C191        C239   1.489       .  S
O193       Ni201   1.918       .  S
O193        C203   1.281       .  A
O194       Ni201   1.910       .  S
O194        C204   1.279       .  A
O195       Ni201   1.921       .  S
O195        C205   1.281       .  A
O196       Ni201   1.913       .  S
O196        C206   1.281       .  A
O197       Ni202   1.918       .  S
O197        C206   1.280       .  A
O198       Ni202   1.913       .  S
O198        C205   1.282       .  A
O199       Ni202   1.915       .  S
O199        C204   1.280       .  A
O200       Ni202   1.912       .  S
O200        C203   1.280       .  A
Ni201      Ni202   2.390       .  S
C203        C351   1.479       .  S
C204        C735   1.466       .  S
C205        C527   1.483       .  S
C206        C255   1.473       .  S
O207       Ni215   1.917       .  S
O207        C217   1.279       .  A
O208       Ni215   1.917       .  S
O208        C218   1.283       .  A
O209       Ni215   1.926       .  S
O209        C219   1.282       .  A
O210       Ni215   1.923       .  S
O210        C220   1.282       .  A
O211       Ni216   1.916       .  S
O211        C220   1.281       .  A
O212       Ni216   1.913       .  S
O212        C219   1.281       .  A
O213       Ni216   1.916       .  S
O213        C218   1.280       .  A
O214       Ni216   1.918       .  S
O214        C217   1.283       .  A
Ni215      Ni216   2.384       .  S
C217        C495   1.484       .  S
C218        C271   1.489       .  S
C219        C559   1.487       .  S
C220        C319   1.487       .  S
O221       Ni229   1.915       .  S
O221        C231   1.282       .  A
O222       Ni229   1.920       .  S
O222        C232   1.281       .  A
O223       Ni229   1.915       .  S
O223        C233   1.282       .  A
O224       Ni229   1.918       .  S
O224        C234   1.280       .  A
O225       Ni230   1.910       .  S
O225        C234   1.281       .  A
O226       Ni230   1.915       .  S
O226        C233   1.279       .  A
O227       Ni230   1.913       .  S
O227        C232   1.282       .  A
O228       Ni230   1.921       .  S
O228        C231   1.281       .  A
Ni229      Ni230   2.387       .  S
C231        C399   1.492       .  S
C232        C236   1.482       .  S
C233        C447   1.476       .  S
C234        C287   1.477       .  S
C235        C236   1.400       .  A
C235        C240   1.399       .  A
C235        H242   1.084       .  S
C236        C237   1.416       .  A
C237        C238   1.409       .  A
C237        C244   1.507       .  S
C238        C239   1.407       .  A
C238        H243   1.084       .  S
C239        C240   1.420       .  A
C240        C241   1.510       .  S
C241        H245   1.111       .  S
C241        H246   1.110       .  S
C241        H247   1.108       .  S
C244        H248   1.110       .  S
C244        H249   1.111       .  S
C244        H250   1.111       .  S
C251        C252   1.405       .  A
C251        C256   1.405       .  A
C251        H258   1.084       .  S
C252        C253   1.417       .  A
C253        C254   1.400       .  A
C253        C260   1.509       .  S
C254        C255   1.401       .  A
C254        H259   1.085       .  S
C255        C256   1.412       .  A
C256        C257   1.506       .  S
C257        H261   1.111       .  S
C257        H262   1.110       .  S
C257        H263   1.111       .  S
C260        H264   1.110       .  S
C260        H265   1.108       .  S
C260        H266   1.111       .  S
C267        C268   1.403       .  A
C267        C272   1.406       .  A
C267        H274   1.084       .  S
C268        C269   1.419       .  A
C269        C270   1.402       .  A
C269        C276   1.510       .  S
C270        C271   1.404       .  A
C270        H275   1.084       .  S
C271        C272   1.420       .  A
C272        C273   1.508       .  S
C273        H277   1.111       .  S
C273        H278   1.110       .  S
C273        H279   1.111       .  S
C276        H280   1.110       .  S
C276        H281   1.109       .  S
C276        H282   1.111       .  S
C283        C284   1.406       .  A
C283        C288   1.408       .  A
C283        H290   1.084       .  S
C284        C285   1.420       .  A
C285        C286   1.399       .  A
C285        C292   1.510       .  S
C286        C287   1.399       .  A
C286        H291   1.084       .  S
C287        C288   1.414       .  A
C288        C289   1.507       .  S
C289        H293   1.111       .  S
C289        H294   1.111       .  S
C289        H295   1.109       .  S
C292        H296   1.109       .  S
C292        H297   1.110       .  S
C292        H298   1.111       .  S
C299        C300   1.404       .  A
C299        C304   1.404       .  A
C299        H306   1.084       .  S
C300        C301   1.416       .  A
C301        C302   1.398       .  A
C301        C308   1.509       .  S
C302        C303   1.398       .  A
C302        H307   1.083       .  S
C303        C304   1.411       .  A
C304        C305   1.503       .  S
C305        H309   1.111       .  S
C305        H310   1.110       .  S
C305        H311   1.109       .  S
C308        H312   1.108       .  S
C308        H313   1.110       .  S
C308        H314   1.111       .  S
C315        C316   1.406       .  A
C315        C320   1.404       .  A
C315        H322   1.084       .  S
C316        C317   1.413       .  A
C317        C318   1.406       .  A
C317        C324   1.507       .  S
C318        C319   1.407   1_655  A
C318        H323   1.084       .  S
C319        C320   1.416   1_455  A
C320        C321   1.508   1_655  S
C321        H325   1.111   1_455  S
C321        H326   1.111       .  S
C321        H327   1.109       .  S
C324        H328   1.110       .  S
C324        H329   1.110       .  S
C324        H330   1.111       .  S
C331        C332   1.402       .  A
C331        C336   1.399       .  A
C331        H338   1.083       .  S
C332        C333   1.416       .  A
C333        C334   1.406       .  A
C333        C340   1.507       .  S
C334        C335   1.406       .  A
C334        H339   1.084       .  S
C335        C336   1.418       .  A
C336        C337   1.508       .  S
C337        H341   1.111       .  S
C337        H342   1.109       .  S
C337        H343   1.105       .  S
C340        H344   1.110       .  S
C340        H345   1.108       .  S
C340        H346   1.111       .  S
C347        C348   1.406       .  A
C347        C352   1.399       .  A
C347        H354   1.084       .  S
C348        C349   1.419       .  A
C349        C350   1.407       .  A
C349        C356   1.507       .  S
C350        C351   1.403       .  A
C350        H355   1.084       .  S
C351        C352   1.413       .  A
C352        C353   1.508       .  S
C353        H357   1.111       .  S
C353        H358   1.109       .  S
C353        H359   1.109       .  S
C356        H360   1.110       .  S
C356        H361   1.109       .  S
C356        H362   1.111       .  S
C363        C364   1.402       .  A
C363        C368   1.401       .  A
C363        H370   1.085       .  S
C364        C365   1.414       .  A
C365        C366   1.406       .  A
C365        C372   1.506       .  S
C366        C367   1.408       .  A
C366        H371   1.084       .  S
C367        C368   1.421       .  A
C368        C369   1.509       .  S
C369        H373   1.111       .  S
C369        H374   1.109       .  S
C369        H375   1.110   1_554  S
C372        H376   1.110       .  S
C372        H377   1.109       .  S
C372        H378   1.111       .  S
C379        C380   1.402       .  A
C379        C384   1.401       .  A
C379        H386   1.084       .  S
C380        C381   1.416       .  A
C381        C382   1.404       .  A
C381        C388   1.508       .  S
C382        C383   1.403       .  A
C382        H387   1.084       .  S
C383        C384   1.414       .  A
C384        C385   1.506       .  S
C385        H389   1.111       .  S
C385        H390   1.105       .  S
C385        H391   1.110       .  S
C388        H392   1.110       .  S
C388        H393   1.109   1_565  S
C388        H394   1.111       .  S
C395        C396   1.406       .  A
C395        C400   1.407       .  A
C395        H402   1.084       .  S
C396        C397   1.419       .  A
C397        C398   1.403       .  A
C397        C404   1.510       .  S
C398        C399   1.405       .  A
C398        H403   1.084       .  S
C399        C400   1.419       .  A
C400        C401   1.508       .  S
C401        H405   1.111       .  S
C401        H406   1.110       .  S
C401        H407   1.110       .  S
C404        H408   1.110       .  S
C404        H409   1.109       .  S
C404        H410   1.111       .  S
C411        C412   1.407       .  A
C411        C416   1.407       .  A
C411        H418   1.084       .  S
C412        C413   1.420       .  A
C413        C414   1.403       .  A
C413        C420   1.509       .  S
C414        C415   1.403       .  A
C414        H419   1.084       .  S
C415        C416   1.415       .  A
C416        C417   1.505       .  S
C417        H421   1.111       .  S
C417        H422   1.111       .  S
C417        H423   1.107       .  S
C420        H424   1.109       .  S
C420        H425   1.109       .  S
C420        H426   1.111       .  S
C427        C428   1.406       .  A
C427        C432   1.403       .  A
C427        H434   1.084       .  S
C428        C429   1.417       .  A
C429        C430   1.401       .  A
C429        C436   1.509       .  S
C430        C431   1.405       .  A
C430        H435   1.084       .  S
C431        C432   1.415       .  A
C432        C433   1.508       .  S
C433        H437   1.111       .  S
C433        H438   1.110       .  S
C433        H439   1.110       .  S
C436        H440   1.111       .  S
C436        H441   1.109       .  S
C436        H442   1.111       .  S
C443        C444   1.406       .  A
C443        C448   1.408       .  A
C443        H450   1.084       .  S
C444        C445   1.421       .  A
C445        C446   1.398       .  A
C445        C452   1.510       .  S
C446        C447   1.398       .  A
C446        H451   1.085       .  S
C447        C448   1.415       .  A
C448        C449   1.507       .  S
C449        H453   1.111       .  S
C449        H454   1.109       .  S
C449        H455   1.111       .  S
C452        H456   1.110       .  S
C452        H457   1.109       .  S
C452        H458   1.111       .  S
C459        C460   1.401       .  A
C459        C464   1.398       .  A
C459        H466   1.084       .  S
C460        C461   1.411       .  A
C461        C462   1.403       .  A
C461        C468   1.507       .  S
C462        C463   1.405       .  A
C462        H467   1.084       .  S
C463        C464   1.414       .  A
C464        C465   1.509       .  S
C465        H469   1.111       .  S
C465        H470   1.111       .  S
C465        H471   1.109       .  S
C468        H472   1.110       .  S
C468        H473   1.110       .  S
C468        H474   1.111       .  S
C475        C476   1.402       .  A
C475        C480   1.401       .  A
C475        H482   1.084       .  S
C476        C477   1.417       .  A
C477        C478   1.406       .  A
C477        C484   1.507       .  S
C478        C479   1.404       .  A
C478        H483   1.085       .  S
C479        C480   1.415       .  A
C480        C481   1.507       .  S
C481        H485   1.111       .  S
C481        H486   1.110   1_655  S
C481        H487   1.106       .  S
C484        H488   1.110       .  S
C484        H489   1.111       .  S
C484        H490   1.111       .  S
C491        C492   1.401   1_455  A
C491        C496   1.404       .  A
C491        H498   1.085       .  S
C492        C493   1.413       .  A
C493        C494   1.401       .  A
C493        C500   1.508       .  S
C494        C495   1.405   1_655  A
C494        H499   1.084       .  S
C495        C496   1.423       .  A
C496        C497   1.508       .  S
C497        H501   1.111       .  S
C497        H502   1.110       .  S
C497        H503   1.099       .  S
C500        H504   1.109       .  S
C500        H505   1.111       .  S
C500        H506   1.111       .  S
C507        C508   1.403       .  A
C507        C512   1.403       .  A
C507        H514   1.085       .  S
C508        C509   1.414       .  A
C509        C510   1.405       .  A
C509        C516   1.505       .  S
C510        C511   1.407       .  A
C510        H515   1.084       .  S
C511        C512   1.417       .  A
C512        C513   1.508       .  S
C513        H517   1.111       .  S
C513        H518   1.111       .  S
C513        H519   1.109       .  S
C516        H520   1.106       .  S
C516        H521   1.110       .  S
C516        H522   1.111       .  S
C523        C524   1.408       .  A
C523        C528   1.409       .  A
C523        H530   1.084   1_455  S
C524        C525   1.424       .  A
C525        C526   1.400       .  A
C525        C532   1.511       .  S
C526        C527   1.399       .  A
C526        H531   1.083       .  S
C527        C528   1.415       .  A
C528        C529   1.507       .  S
C529        H533   1.111       .  S
C529        H534   1.110       .  S
C529        H535   1.109       .  S
C532        H536   1.109   1_455  S
C532        H537   1.110   1_556  S
C532        H538   1.111       .  S
C539        C540   1.404       .  A
C539        C544   1.402       .  A
C539        H546   1.083       .  S
C540        C541   1.414       .  A
C541        C542   1.402       .  A
C541        C548   1.508       .  S
C542        C543   1.404       .  A
C542        H547   1.084       .  S
C543        C544   1.412       .  A
C544        C545   1.506       .  S
C545        H549   1.111       .  S
C545        H550   1.110       .  S
C545        H551   1.105       .  S
C548        H552   1.109       .  S
C548        H553   1.111       .  S
C548        H554   1.111       .  S
C555        C556   1.403       .  A
C555        C560   1.404       .  A
C555        H562   1.084       .  S
C556        C557   1.417       .  A
C557        C558   1.404       .  A
C557        C564   1.508       .  S
C558        C559   1.405       .  A
C558        H563   1.084       .  S
C559        C560   1.417       .  A
C560        C561   1.504       .  S
C561        H565   1.111       .  S
C561        H566   1.109       .  S
C561        H567   1.106       .  S
C564        H568   1.110   1_565  S
C564        H569   1.108       .  S
C564        H570   1.111       .  S
C571        C572   1.405       .  A
C571        C576   1.400       .  A
C571        H578   1.083       .  S
C572        C573   1.419       .  A
C573        C574   1.408       .  A
C573        C580   1.505   1_545  S
C574        C575   1.403       .  A
C574        H579   1.084       .  S
C575        C576   1.412       .  A
C576        C577   1.509       .  S
C577        H581   1.111       .  S
C577        H582   1.111       .  S
C577        H583   1.109       .  S
C580        H584   1.108   1_565  S
C580        H585   1.110       .  S
C580        H586   1.111       .  S
C587        C588   1.399       .  A
C587        C592   1.400       .  A
C587        H594   1.085       .  S
C588        C589   1.411       .  A
C589        C590   1.407       .  A
C589        C596   1.506       .  S
C590        C591   1.406       .  A
C590        H595   1.084       .  S
C591        C592   1.416       .  A
C592        C593   1.509       .  S
C593        H597   1.111       .  S
C593        H598   1.110   1_556  S
C593        H599   1.109   1_556  S
C596        H600   1.110       .  S
C596        H601   1.111       .  S
C596        H602   1.111       .  S
C603        C604   1.402       .  A
C603        C608   1.404   1_545  A
C603        H610   1.084       .  S
C604        C605   1.412       .  A
C605        C606   1.401       .  A
C605        C612   1.509       .  S
C606        C607   1.404   1_545  A
C606        H611   1.084       .  S
C607        C608   1.415       .  A
C608        C609   1.506       .  S
C609        H613   1.111       .  S
C609        H614   1.110       .  S
C609        H615   1.106       .  S
C612        H616   1.109       .  S
C612        H617   1.111       .  S
C612        H618   1.111       .  S
C619        C620   1.408       .  A
C619        C624   1.404       .  A
C619        H626   1.084       .  S
C620        C621   1.418       .  A
C621        C622   1.398       .  A
C621        C628   1.510   1_655  S
C622        C623   1.403       .  A
C622        H627   1.084       .  S
C623        C624   1.415       .  A
C624        C625   1.508       .  S
C625        H629   1.111       .  S
C625        H630   1.110       .  S
C625        H631   1.110       .  S
C628        H632   1.110       .  S
C628        H633   1.110       .  S
C628        H634   1.111       .  S
C635        C636   1.402   1_455  A
C635        C640   1.406       .  A
C635        H642   1.084       .  S
C636        C637   1.412       .  A
C637        C638   1.397       .  A
C637        C644   1.510       .  S
C638        C639   1.404   1_655  A
C638        H643   1.081       .  S
C639        C640   1.419       .  A
C640        C641   1.508       .  S
C641        H645   1.111       .  S
C641        H646   1.110       .  S
C641        H647   1.110       .  S
C644        H648   1.111       .  S
C644        H649   1.109       .  S
C644        H650   1.111       .  S
C651        C652   1.404       .  A
C651        C656   1.400       .  A
C651        H658   1.084       .  S
C652        C653   1.417   1_565  A
C653        C654   1.403       .  A
C653        C660   1.508       .  S
C654        C655   1.402       .  A
C654        H659   1.084       .  S
C655        C656   1.415   1_545  A
C656        C657   1.509       .  S
C657        H661   1.111       .  S
C657        H662   1.110       .  S
C657        H663   1.109       .  S
C660        H664   1.109       .  S
C660        H665   1.111       .  S
C660        H666   1.111       .  S
C667        C668   1.404       .  A
C667        C672   1.407       .  A
C667        H674   1.084       .  S
C668        C669   1.417       .  A
C669        C670   1.401       .  A
C669        C676   1.509       .  S
C670        C671   1.404       .  A
C670        H675   1.084       .  S
C671        C672   1.420       .  A
C672        C673   1.508       .  S
C673        H677   1.111       .  S
C673        H678   1.110       .  S
C673        H679   1.110       .  S
C676        H680   1.109       .  S
C676        H681   1.110       .  S
C676        H682   1.111   1_565  S
C683        C684   1.407       .  A
C683        C688   1.400   1_545  A
C683        H690   1.084   1_545  S
C684        C685   1.418       .  A
C685        C686   1.409       .  A
C685        C692   1.507       .  S
C686        C687   1.407       .  A
C686        H691   1.084       .  S
C687        C688   1.414   1_545  A
C688        C689   1.509       .  S
C689        H693   1.111       .  S
C689        H694   1.109       .  S
C689        H695   1.111       .  S
C692        H696   1.110       .  S
C692        H697   1.110       .  S
C692        H698   1.111       .  S
C699        C700   1.407       .  A
C699        C704   1.401       .  A
C699        H706   1.084       .  S
C700        C701   1.418       .  A
C701        C702   1.406       .  A
C701        C708   1.508   1_565  S
C702        C703   1.406       .  A
C702        H707   1.084       .  S
C703        C704   1.416       .  A
C704        C705   1.509       .  S
C705        H709   1.111       .  S
C705        H710   1.109       .  S
C705        H711   1.108       .  S
C708        H712   1.110       .  S
C708        H713   1.110       .  S
C708        H714   1.111       .  S
C715        C716   1.402       .  A
C715        C720   1.401       .  A
C715        H722   1.084       .  S
C716        C717   1.418       .  A
C717        C718   1.406       .  A
C717        C724   1.508       .  S
C718        C719   1.406       .  A
C718        H723   1.084       .  S
C719        C720   1.420       .  A
C720        C721   1.507       .  S
C721        H725   1.111   1_655  S
C721        H726   1.109       .  S
C721        H727   1.109       .  S
C724        H728   1.110       .  S
C724        H729   1.111       .  S
C724        H730   1.111       .  S
C731        C732   1.405       .  A
C731        C736   1.405       .  A
C731        H738   1.084       .  S
C732        C733   1.415       .  A
C733        C734   1.399   1_655  A
C733        C740   1.506       .  S
C734        C735   1.399       .  A
C734        H739   1.085       .  S
C735        C736   1.410   1_455  A
C736        C737   1.506       .  S
C737        H741   1.111       .  S
C737        H742   1.110       .  S
C737        H743   1.110       .  S
C740        H744   1.110   1_655  S
C740        H745   1.107       .  S
C740        H746   1.111   1_655  S
C747        C748   1.407       .  A
C747        C752   1.407       .  A
C747        H754   1.084       .  S
C748        C749   1.418       .  A
C749        C750   1.400       .  A
C749        C756   1.509       .  S
C750        C751   1.401       .  A
C750        H755   1.085       .  S
C751        C752   1.415       .  A
C752        C753   1.507       .  S
C753        H757   1.111       .  S
C753        H758   1.111       .  S
C753        H759   1.110       .  S
C756        H760   1.109       .  S
C756        H761   1.110       .  S
C756        H762   1.111       .  S
C763        C764   1.402       .  A
C763        C768   1.401   1_545  A
C763        H770   1.084       .  S
C764        C765   1.411   1_545  A
C765        C766   1.404       .  A
C765        C772   1.507       .  S
C766        C767   1.404       .  A
C766        H771   1.084       .  S
C767        C768   1.415       .  A
C768        C769   1.509   1_565  S
C769        H773   1.111       .  S
C769        H774   1.109       .  S
C769        H775   1.110   1_545  S
C772        H776   1.111       .  S
C772        H777   1.109       .  S
C772        H778   1.111       .  S
C779        C780   1.408   1_455  A
C779        C784   1.406       .  A
C779        H786   1.083       .  S
C780        C781   1.419       .  A
C781        C782   1.398       .  A
C781        C788   1.510       .  S
C782        C783   1.403   1_655  A
C782        H787   1.084       .  S
C783        C784   1.418       .  A
C784        C785   1.509       .  S
C785        H789   1.111       .  S
C785        H790   1.110       .  S
C785        H791   1.110       .  S
C788        H792   1.111       .  S
C788        H793   1.110       .  S
C788        H794   1.111       .  S
C795        C796   1.401       .  A
C795        C800   1.404       .  A
C795        H802   1.084       .  S
C796        C797   1.415       .  A
C797        C798   1.405       .  A
C797        C804   1.508       .  S
C798        C799   1.404       .  A
C798        H803   1.084       .  S
C799        C800   1.418       .  A
C800        C801   1.508       .  S
C801        H805   1.111       .  S
C801        H806   1.111       .  S
C801        H807   1.109       .  S
C804        H808   1.109       .  S
C804        H809   1.111   1_655  S
C804        H810   1.111       .  S
