geometry optimzed in LAMMPS
_audit_creation_date              2020-11-30 
_audit_creation_method            'lammps2cif' 
_symmetry_space_group_name_H-M    'P1' 
_symmetry_Int_Tables_number       1 
_symmetry_cell_setting            triclinic 
loop_ 
_symmetry_equiv_pos_as_xyz 
  x,y,z 
_cell_length_a                    26.95895532 
_cell_length_b                    26.323089351984088 
_cell_length_c                    37.228219037476634 
_cell_angle_alpha                 90.05715722387019 
_cell_angle_beta                  90.54868589052118 
_cell_angle_gamma                 121.86361889880764 
loop_ 
_atom_site_label 
_atom_site_type_symbol 
_atom_site_fract_x 
_atom_site_fract_y 
_atom_site_fract_z 
_atom_site_charge 
O1          O  0.85507531  0.44559237  0.05557420    -0.58100
C2          C  0.86207818  0.34173938  0.50904168     0.74500
O3          O  0.89260418  0.53920506  0.49619640    -0.59300
C4          C  0.80545772  0.42957418  0.06849763     0.74500
C5          C  0.80009184  0.37874824  0.43010253     0.76900
Cd6        Cd  0.82675189  0.41504947  0.99647423     1.37500
O7          O  0.89857602  0.38295681  0.99567425    -0.58100
O8          O  0.85068415  0.42344866  0.43749038    -0.56900
C9          C  0.84657518  0.53064071  0.99074524     0.76800
O10         O  0.76115713  0.35963244  0.45435750    -0.59300
O11         O  0.81422655  0.33525587  0.51936076    -0.57800
O12         O  0.76098006  0.40137936  0.04757291    -0.57700
O13         O  0.79811997  0.48436255  0.98147361    -0.56900
O14         O  0.55695839  0.43461911  0.08595066    -0.58100
C15         C  0.69113089  0.55324866  0.53735065     0.74500
O16         O  0.49685120  0.35650657  0.50636258    -0.59300
C17         C  0.50965143  0.43376981  0.08425118     0.74500
C18         C  0.59629663  0.46755805  0.44914586     0.76900
Cd19       Cd  0.58537835  0.46304989  0.02520425     1.37500
O20         O  0.66088123  0.57022304  0.02996362    -0.58100
O21         O  0.56467526  0.48404574  0.46436050    -0.56900
C22         C  0.53095252  0.33871144  0.01929618     0.76800
O23         O  0.61745782  0.44408985  0.46879615    -0.59300
O24         O  0.67786520  0.50043587  0.54503527    -0.57800
O25         O  0.50096821  0.45698257  0.05664849    -0.57700
O26         O  0.58144155  0.37032704  0.03364039    -0.56900
O27         O  0.67406929  0.10690587  0.46575342    -0.58100
C28         C  0.56238278  0.14624438  0.39962140     0.74500
O29         O  0.63269477  0.17600374  0.03705858    -0.59300
C30         C  0.71132426  0.15317033  0.97255831     0.74500
C31         C  0.51009971  0.14178149  0.49451495     0.76900
Cd32       Cd  0.60038470  0.13662536  0.97603744     1.37500
O33         O  0.59385850  0.19363377  0.41823700    -0.58100
O34         O  0.56065629  0.18890582  0.49031238    -0.56900
C35         C  0.60800033  0.12477608  0.05199799     0.76800
O36         O  0.49914775  0.09174851  0.99182036    -0.59300
O37         O  0.55495846  0.09786628  0.41296294    -0.57800
O38         O  0.70292387  0.19654832  0.97140532    -0.57700
O39         O  0.58138314  0.07880905  0.03127954    -0.56900
O40         O  0.13432364  0.47068353  0.47780735    -0.58100
C41         C  0.11682871  0.55211737  0.00240106     0.74500
O42         O  0.13509270  0.51805738  0.08739812    -0.59300
C43         C  0.08488153  0.44237189  0.46174258     0.74500
C44         C  0.12432512  0.36798626  0.05071008     0.76900
Cd45       Cd  0.08807555  0.44884388  0.03697674     1.37500
O46         O  0.05804261  0.52406824  0.50676303    -0.58100
O47         O  0.16570518  0.44271137  0.54826718    -0.56900
C48         C  0.08818211  0.50901692  0.10115602     0.76800
O49         O  0.06971634  0.34809364  0.05070671    -0.59300
O50         O  0.15504494  0.54292852  0.01615823    -0.57800
O51         O  0.03926441  0.42166002  0.48124670    -0.57700
O52         O  0.04011838  0.46585624  0.08793537    -0.56900
O53         O  0.48390882  0.54963160  0.02153840    -0.58100
C54         C  0.31521987  0.52441583  0.07163517     0.74500
O55         O  0.35488062  0.42270348  0.53199056    -0.59300
C56         C  0.50089474  0.60083757  0.03496404     0.74500
C57         C  0.40944114  0.56235366  0.43935740     0.76900
Cd58       Cd  0.38240557  0.52741959  0.01438551     1.37500
O59         O  0.28836655  0.49829953  0.04288530    -0.58100
O60         O  0.42414954  0.52949504  0.45486266    -0.56900
C61         C  0.30695776  0.40059437  0.01636241     0.76800
O62         O  0.37979126  0.57829329  0.45747431    -0.59300
O63         O  0.36698758  0.56858241  0.06857420    -0.57800
O64         O  0.46230806  0.61926073  0.53258290    -0.57700
O65         O  0.30412668  0.43235545  0.99181284    -0.56900
O66         O  0.34264141  0.77027299  0.99171502    -0.58100
C67         C  0.43156297  0.77868042  0.06147026     0.74500
O68         O  0.53289174  0.82998328  0.48923464    -0.59300
C69         C  0.31702207  0.71847609  0.97753040     0.74500
C70         C  0.39882146  0.82701575  0.42076580     0.76900
Cd71       Cd  0.43637676  0.78729013  0.98510425     1.37500
O72         O  0.40892086  0.73257228  0.04148557    -0.58100
O73         O  0.42108508  0.86213537  0.44797808    -0.56900
C74         C  0.53425016  0.77359010  0.98584029     0.76800
O75         O  0.40100196  0.78000403  0.42123536    -0.59300
O76         O  0.45306207  0.82942482  0.04620352    -0.57800
O77         O  0.33573475  0.69301586  0.47119489    -0.57700
O78         O  0.48573228  0.73507762  0.97127990    -0.56900
C79         C  0.81963603  0.30281879  0.28576317    -0.02800
C80         C  0.61967267  0.08918237  0.20942429    -0.02800
C81         C  0.82478526  0.51394048  0.21734617    -0.02800
C82         C  0.61367614  0.49680372  0.29248423    -0.02800
C83         C  0.48600159  0.62473780  0.28985479    -0.02800
C84         C  0.48918206  0.83074840  0.21257387    -0.02800
C85         C  0.07322596  0.63514572  0.22885498    -0.02800
C86         C  0.29923837  0.85626020  0.28508963    -0.02800
C87         C  0.42253812  0.10884909  0.26448524    -0.02800
C88         C  0.39598603  0.31077912  0.21565478    -0.02800
C89         C  0.07262019  0.42820361  0.30250052    -0.02800
C90         C  0.26330043  0.42629938  0.21661701    -0.02800
C91         C  0.12167000  0.42567430  0.28027215    -0.06400
C92         C  0.11270838  0.37086910  0.26667494    -0.17600
C93         C  0.15528663  0.36759649  0.24582255     0.10800
C94         C  0.20823738  0.42098664  0.23571707    -0.06400
C95         C  0.21216337  0.47482484  0.24493931    -0.17600
C96         C  0.17585910  0.47804739  0.27028411     0.10800
S97         S  0.13697145  0.29539372  0.22880468    -0.32600
S98         S  0.20657289  0.54965771  0.29232728    -0.32600
H99         H  0.26113215  0.58088214  0.27561423     0.28800
H100        H  0.08113325  0.26139227  0.24388285     0.28800
H101        H  0.07280644  0.32978546  0.27333499     0.19400
H102        H  0.24851026  0.51620018  0.23493122     0.19400
C103        C  0.27056453  0.37082692  0.22387283    -0.06400
C104        C  0.26500751  0.33075345  0.19646603    -0.17600
C105        C  0.29467312  0.29953763  0.19869277     0.10800
C106        C  0.34138592  0.31769678  0.22433329    -0.06400
C107        C  0.33749543  0.34910048  0.25429360    -0.17600
C108        C  0.29529392  0.36494959  0.25602918     0.10800
S109        S  0.26948288  0.23664868  0.16886012    -0.32600
S110        S  0.26009754  0.35634258  0.29857250    -0.32600
H111        H  0.30401348  0.35823594  0.32034152     0.28800
H112        H  0.27583008  0.20117104  0.19434556     0.28800
H113        H  0.23744506  0.32351548  0.17327434     0.19400
H114        H  0.36326844  0.35967633  0.27794126     0.19400
C115        C  0.40473968  0.15211935  0.24618802    -0.06400
C116        C  0.36827032  0.16619865  0.26498939    -0.17600
C117        C  0.35637978  0.21039568  0.25324271     0.10800
C118        C  0.38192384  0.24422057  0.22109149    -0.06400
C119        C  0.40990638  0.22244928  0.19988071    -0.17600
C120        C  0.41762279  0.17545762  0.21003769     0.10800
S121        S  0.30707606  0.22084385  0.28020954    -0.32600
S122        S  0.44331495  0.15067341  0.17287719    -0.32600
H123        H  0.41617240  0.09014854  0.18117015     0.28800
H124        H  0.29468673  0.17730552  0.30633814     0.28800
H125        H  0.35092809  0.14391404  0.29029256     0.19400
H126        H  0.42862533  0.24282194  0.17474394     0.19400
C127        C  0.30303531  0.91958592  0.28328828    -0.06400
C128        C  0.29544352  0.94183478  0.25075700    -0.17600
C129        C  0.32536410  0.00432146  0.24400802     0.10800
C130        C  0.36355896  0.04550720  0.27097946    -0.06400
C131        C  0.34687066  0.02266487  0.30602461    -0.17600
C132        C  0.31418673  0.96050408  0.31254158     0.10800
S133        S  0.30725700  0.02687734  0.20304558    -0.32600
S134        S  0.28405058  0.93760273  0.35717279    -0.32600
H135        H  0.30273796  0.99457786  0.37137480     0.28800
H136        H  0.29662015  0.06766332  0.22028681     0.28800
H137        H  0.26618165  0.91053912  0.23057022     0.19400
H138        H  0.36134697  0.05325441  0.32860780     0.19400
C139        C  0.06652175  0.58164609  0.25270984    -0.06400
C140        C  0.09351832  0.59050386  0.28671517    -0.17600
C141        C  0.09207212  0.54350572  0.30643718     0.10800
C142        C  0.07367698  0.48651469  0.28872184    -0.06400
C143        C  0.05805145  0.48475041  0.25272688    -0.17600
C144        C  0.04122881  0.52204510  0.23877338     0.10800
S145        S  0.12227717  0.56846633  0.35132290    -0.32600
S146        S  0.99052201  0.48824079  0.20181596    -0.32600
H147        H  0.97516132  0.53075504  0.20294150     0.28800
H148        H  0.15579290  0.54249305  0.35423704     0.28800
H149        H  0.11422695  0.63394615  0.29921521     0.19400
H150        H  0.05754983  0.45316988  0.23446526     0.19400
C151        C  0.23653025  0.80465469  0.26935894    -0.06400
C152        C  0.23155292  0.77990039  0.23471973    -0.17600
C153        C  0.17774705  0.73717472  0.21839473     0.10800
C154        C  0.12743506  0.70103213  0.23994905    -0.06400
C155        C  0.12968687  0.72934750  0.27285923    -0.17600
C156        C  0.18141004  0.78137590  0.28668323     0.10800
S157        S  0.17419944  0.73991579  0.16976356    -0.32600
S158        S  0.17562109  0.81260389  0.32823106    -0.32600
H159        H  0.11839418  0.76720163  0.33694060     0.28800
H160        H  0.23320883  0.78334155  0.16358106     0.28800
H161        H  0.26908415  0.79492566  0.21855079     0.19400
H162        H  0.09059586  0.71130488  0.28803945     0.19400
C163        C  0.44555404  0.84477046  0.23156571    -0.06400
C164        C  0.41843183  0.87014191  0.21253040    -0.17600
C165        C  0.37324343  0.87645911  0.22691277     0.10800
C166        C  0.35162021  0.85598366  0.26303987    -0.06400
C167        C  0.38215666  0.83193140  0.28073068    -0.17600
C168        C  0.43251227  0.83600586  0.26842848     0.10800
S169        S  0.34324230  0.90346183  0.19401740    -0.32600
S170        S  0.48015454  0.83441519  0.30235829    -0.32600
H171        H  0.45760436  0.84851212  0.33207997     0.28800
H172        H  0.39614001  0.94311615  0.17672989     0.28800
H173        H  0.43164934  0.88373515  0.18520217     0.19400
H174        H  0.36928013  0.80928902  0.30579061     0.19400
C175        C  0.32078488  0.48310535  0.23378770    -0.06400
C176        C  0.32442956  0.48899906  0.27124553    -0.17600
C177        C  0.37090053  0.53761141  0.28892546     0.10800
C178        C  0.42652369  0.57278231  0.27115394    -0.06400
C179        C  0.42144245  0.57020346  0.23325167    -0.17600
C180        C  0.36677581  0.53426479  0.21572406     0.10800
S181        S  0.34611630  0.56337981  0.32610560    -0.32600
S182        S  0.35047013  0.57301919  0.18198448    -0.32600
H183        H  0.40838230  0.61579572  0.17269225     0.28800
H184        H  0.30433396  0.50668752  0.33938501     0.28800
H185        H  0.28521531  0.46248707  0.28624275     0.19400
H186        H  0.45681202  0.60556601  0.21811907     0.19400
C187        C  0.49582687  0.68532032  0.27316457    -0.06400
C188        C  0.44496972  0.68748207  0.26857926    -0.17600
C189        C  0.44122466  0.72756423  0.24599968     0.10800
C190        C  0.49293878  0.78121203  0.23475144    -0.06400
C191        C  0.54611120  0.78489856  0.24358752    -0.17600
C192        C  0.54791379  0.73599762  0.25907783     0.10800
S193        S  0.36749542  0.70735100  0.23452799    -0.32600
S194        S  0.61762975  0.74176396  0.26011003    -0.32600
H195        H  0.64721917  0.79099000  0.23702325     0.28800
H196        H  0.34087476  0.64530081  0.23884759     0.28800
H197        H  0.40501432  0.65374645  0.28057698     0.19400
H198        H  0.58665414  0.82481836  0.23638531     0.19400
C199        C  0.55728288  0.44053626  0.27547993    -0.06400
C200        C  0.56161997  0.41481185  0.24326025    -0.17600
C201        C  0.51239483  0.37124852  0.22393030     0.10800
C202        C  0.45473544  0.34755945  0.23809622    -0.06400
C203        C  0.45386339  0.36001629  0.27415901    -0.17600
C204        C  0.49915848  0.41270449  0.28968154     0.10800
S205        S  0.52811185  0.34743992  0.18222066    -0.32600
S206        S  0.47466976  0.43608573  0.32754581    -0.32600
H207        H  0.52519463  0.48878005  0.33756594     0.28800
H208        H  0.57759164  0.40318445  0.17343289     0.28800
H209        H  0.60341466  0.43132201  0.23098222     0.19400
H210        H  0.41648508  0.33041515  0.29007769     0.19400
C211        C  0.60219016  0.55033115  0.28622667    -0.06400
C212        C  0.60504213  0.58748460  0.31459768    -0.17600
C213        C  0.57880876  0.62152994  0.31311847     0.10800
C214        C  0.53879956  0.61329266  0.28472400    -0.06400
C215        C  0.54530645  0.58621208  0.25360431    -0.17600
C216        C  0.57936661  0.55895704  0.25340386     0.10800
S217        S  0.60151665  0.67574111  0.34886371    -0.32600
S218        S  0.59496413  0.53818037  0.21064726    -0.32600
H219        H  0.57564566  0.56819604  0.18890256     0.28800
H220        H  0.58897448  0.71396582  0.33054298     0.28800
H221        H  0.62614005  0.59017653  0.33954416     0.19400
H222        H  0.52477366  0.58666637  0.22890975     0.19400
C223        C  0.88757174  0.57412681  0.22434079    -0.06400
C224        C  0.91275535  0.58709139  0.25904951    -0.17600
C225        C  0.97407230  0.61183327  0.26365894     0.10800
C226        C  0.01220808  0.63269549  0.23285614    -0.06400
C227        C  0.98805821  0.64778389  0.20433554    -0.17600
C228        C  0.92659959  0.61478048  0.19768418     0.10800
S229        S  0.99871871  0.61377587  0.30916752    -0.32600
S230        S  0.90087894  0.62981191  0.15649914    -0.32600
H231        H  0.95527372  0.66195096  0.13943048     0.28800
H232        H  0.94986392  0.60787229  0.32658659     0.28800
H233        H  0.88412501  0.56566136  0.28159926     0.19400
H234        H  0.01743176  0.68133466  0.18553388     0.19400
C235        C  0.77466428  0.51717631  0.23894308    -0.06400
C236        C  0.74053680  0.47259294  0.26448981    -0.17600
C237        C  0.68826835  0.46289840  0.27869026     0.10800
C238        C  0.67176965  0.50605669  0.27462106    -0.06400
C239        C  0.71157551  0.55747594  0.25465754    -0.17600
C240        C  0.76153509  0.56335458  0.23693137     0.10800
S241        S  0.64328648  0.39144336  0.30036182    -0.32600
S242        S  0.80842361  0.63160134  0.21312351    -0.32600
H243        H  0.77081382  0.65350410  0.21311751     0.28800
H244        H  0.66413597  0.36023302  0.28146004     0.28800
H245        H  0.75282336  0.44218654  0.27387131     0.19400
H246        H  0.70377029  0.59361759  0.25277655     0.19400
C247        C  0.46730257  0.10369704  0.24036751    -0.06400
C248        C  0.46032790  0.04731894  0.23424404    -0.17600
C249        C  0.50913277  0.04157581  0.23300306     0.10800
C250        C  0.56375718  0.09019463  0.22164391    -0.06400
C251        C  0.56704334  0.14576194  0.21885508    -0.17600
C252        C  0.52393995  0.15437023  0.23297621     0.10800
S253        S  0.50302598  0.98200821  0.25922324    -0.32600
S254        S  0.54420161  0.23056234  0.24239896    -0.32600
H255        H  0.60489729  0.25735913  0.23923766     0.28800
H256        H  0.45023917  0.96337444  0.27637333     0.28800
H257        H  0.41960338  0.00728858  0.24010195     0.19400
H258        H  0.60720701  0.18451255  0.20973957     0.19400
C259        C  0.54650334  0.89582610  0.20875413    -0.06400
C260        C  0.57974537  0.92768922  0.23990130    -0.17600
C261        C  0.61178512  0.99186544  0.24176035     0.10800
C262        C  0.61331415  0.02483414  0.21087277    -0.06400
C263        C  0.60572887  0.99292317  0.17899784    -0.17600
C264        C  0.56205027  0.93231901  0.17697182     0.10800
S265        S  0.64428118  0.02861809  0.28406072    -0.32600
S266        S  0.52043416  0.91396445  0.13548752    -0.32600
H267        H  0.56761771  0.94951746  0.11267420     0.28800
H268        H  0.62829038  0.97676366  0.30382936     0.28800
H269        H  0.57579891  0.90315942  0.26387117     0.19400
H270        H  0.62327892  0.01642748  0.15418416     0.19400
C271        C  0.82629304  0.35458752  0.26106114    -0.06400
C272        C  0.78052438  0.34670035  0.23814499    -0.17600
C273        C  0.77786399  0.39532730  0.22454347     0.10800
C274        C  0.82499389  0.45597395  0.23115521    -0.06400
C275        C  0.87426929  0.46103130  0.24808701    -0.17600
C276        C  0.87376193  0.41454830  0.26579374     0.10800
S277        S  0.71105298  0.37738041  0.20134082    -0.32600
S278        S  0.92963396  0.43786834  0.30005416    -0.32600
H279        H  0.92848184  0.48829032  0.31091557     0.28800
H280        H  0.68674986  0.31559381  0.19688629     0.28800
H281        H  0.74370715  0.30259726  0.23295022     0.19400
H282        H  0.91535813  0.50133393  0.24894442     0.19400
C283        C  0.88182158  0.30823832  0.28557879    -0.06400
C284        C  0.90888199  0.30599799  0.31801009    -0.17600
C285        C  0.96958970  0.33020153  0.32130549     0.10800
C286        C  0.00798197  0.36957177  0.29456852    -0.06400
C287        C  0.98111061  0.35393861  0.26008835    -0.17600
C288        C  0.91981304  0.32621750  0.25494582     0.10800
S289        S  0.99470959  0.30047537  0.35589201    -0.32600
S290        S  0.89752257  0.32148050  0.20832582    -0.32600
H291        H  0.83732518  0.29307307  0.21172371     0.28800
H292        H  0.93973063  0.24943954  0.36316166     0.28800
H293        H  0.88433556  0.28662760  0.34181366     0.19400
H294        H  0.00737738  0.36312350  0.23654186     0.19400
C295        C  0.76755897  0.23964226  0.27157073    -0.06400
C296        C  0.77799529  0.20107872  0.25048307    -0.17600
C297        C  0.73297378  0.15186814  0.23048249     0.10800
C298        C  0.67369132  0.13563996  0.23390800    -0.06400
C299        C  0.66390351  0.16281630  0.26355687    -0.17600
C300        C  0.70723251  0.21745410  0.27837598     0.10800
S301        S  0.75532458  0.11247111  0.20181947    -0.32600
S302        S  0.68063890  0.25785769  0.30298640    -0.32600
H303        H  0.62022863  0.21591623  0.30093648     0.28800
H304        H  0.71719671  0.10265081  0.17327870     0.28800
H305        H  0.82203210  0.21114674  0.24723797     0.19400
H306        H  0.62074425  0.14349564  0.27431967     0.19400
C307        C  0.36824960  0.83692545  0.39031133    -0.06400
C308        C  0.31660962  0.78781302  0.37607428    -0.17600
C309        C  0.28926666  0.79099538  0.34418118     0.10800
C310        C  0.31242486  0.84726717  0.32592222    -0.06400
C311        C  0.36540081  0.89581481  0.34150710    -0.17600
C312        C  0.39029264  0.89215301  0.37383447     0.10800
S313        S  0.23713746  0.71974221  0.32368650    -0.32600
S314        S  0.45130433  0.95932712  0.39245798    -0.32600
H315        H  0.48656110  0.93499660  0.39675130     0.28800
H316        H  0.24681491  0.68254944  0.34589675     0.28800
H317        H  0.29891915  0.74540374  0.38933651     0.19400
H318        H  0.39034044  0.93751036  0.32731840     0.19400
C319        C  0.46710942  0.79986053  0.17461488    -0.06400
C320        C  0.40970653  0.77923523  0.16145081    -0.17600
C321        C  0.39458979  0.76695703  0.12502005     0.10800
C322        C  0.43696065  0.77386523  0.10058128    -0.06400
C323        C  0.48925525  0.78184462  0.11383860    -0.17600
C324        C  0.50494194  0.79413302  0.15036840     0.10800
S325        S  0.32145277  0.74550401  0.11160474    -0.32600
S326        S  0.57783836  0.81329371  0.16280963    -0.32600
H327        H  0.60077275  0.82196302  0.12803124     0.28800
H328        H  0.32107415  0.72192998  0.07769118     0.28800
H329        H  0.37602087  0.77506238  0.17872993     0.19400
H330        H  0.51998577  0.78326591  0.09489364     0.19400
C331        C  0.56049653  0.65320712  0.03010298    -0.02200
C332        C  0.57818530  0.67873931  0.48556580    -0.17600
C333        C  0.58286724  0.72995900  0.47047937     0.10800
C334        C  0.57499188  0.75535658  0.99816075    -0.06400
C335        C  0.58249443  0.75477697  0.03553368    -0.17600
C336        C  0.57632296  0.70361255  0.05181947     0.10800
S337        S  0.59029014  0.74046587  0.42286780    -0.32600
S338        S  0.57181996  0.69754314  0.09997821    -0.32600
H339        H  0.56591017  0.64110863  0.10106424     0.28800
H340        H  0.59997269  0.79850739  0.42340713     0.28800
H341        H  0.57360914  0.64392236  0.46770582     0.19400
H342        H  0.58307169  0.78877881  0.05217306     0.19400
C343        C  0.29562521  0.49397174  0.10661769    -0.06400
C344        C  0.24080769  0.47543332  0.12080676    -0.17600
C345        C  0.22330434  0.44588377  0.15432296     0.10800
C346        C  0.26351136  0.43687039  0.17493470    -0.06400
C347        C  0.31341928  0.44642042  0.15665391    -0.17600
C348        C  0.33071612  0.47654164  0.12409865     0.10800
S349        S  0.14872070  0.41764611  0.16731293    -0.32600
S350        S  0.40170537  0.49771856  0.10778000    -0.32600
H351        H  0.38947296  0.43947794  0.11143422     0.28800
H352        H  0.12934069  0.43055167  0.13539528     0.28800
H353        H  0.21240155  0.48546435  0.10599468     0.19400
H354        H  0.34394840  0.43788929  0.17016972     0.19400
C355        C  0.42787654  0.58044962  0.40194946    -0.06400
C356        C  0.44852241  0.63899809  0.39064933    -0.17600
C357        C  0.47153246  0.65852524  0.35590515     0.10800
C358        C  0.47320966  0.61742984  0.33128089    -0.06400
C359        C  0.45676597  0.56044572  0.34503683    -0.17600
C360        C  0.43213526  0.54105718  0.37866419     0.10800
S361        S  0.50127481  0.73635184  0.34637135    -0.32600
S362        S  0.39855215  0.46271553  0.38870431    -0.32600
H363        H  0.45237571  0.47018073  0.39909286     0.28800
H364        H  0.46913695  0.74601122  0.37209826     0.28800
H365        H  0.44799120  0.66999373  0.40950367     0.19400
H366        H  0.45676615  0.52802657  0.32733079     0.19400
C367        C  0.08136698  0.43227187  0.34452174    -0.06400
C368        C  0.04054257  0.43951523  0.36421488    -0.17600
C369        C  0.04201155  0.44488399  0.40165756     0.10800
C370        C  0.08150553  0.43669704  0.42181550    -0.06400
C371        C  0.12175633  0.42805997  0.40340879    -0.17600
C372        C  0.12262888  0.42558783  0.36541384     0.10800
S373        S  0.99874942  0.47065141  0.42263231    -0.32600
S374        S  0.17507869  0.41083010  0.34614451    -0.32600
H375        H  0.19839548  0.40315275  0.37816168     0.28800
H376        H  0.96777532  0.46963229  0.39173611     0.28800
H377        H  0.00884167  0.44465392  0.34961099     0.19400
H378        H  0.15284680  0.42311896  0.41920350     0.19400
C379        C  0.14824527  0.32941615  0.04678329    -0.06400
C380        C  0.18785570  0.33321337  0.07295260    -0.17600
C381        C  0.23832515  0.33456146  0.06240972     0.10800
C382        C  0.25334914  0.34286648  0.02581038    -0.06400
C383        C  0.20434117  0.32706585  0.50123493    -0.17600
C384        C  0.15438297  0.32742809  0.51132885     0.10800
S385        S  0.28563478  0.33353048  0.09612578    -0.32600
S386        S  0.10001833  0.31540789  0.47797309    -0.32600
H387        H  0.12488751  0.30236601  0.44910880     0.28800
H388        H  0.31982862  0.32524790  0.07140639     0.28800
H389        H  0.18234771  0.34051325  0.10089515     0.19400
H390        H  0.21169858  0.32374393  0.47301917     0.19400
C391        C  0.13697506  0.60372869  0.97954891    -0.06400
C392        C  0.15215100  0.60646122  0.44623204    -0.17600
C393        C  0.21316493  0.63920357  0.44541563     0.10800
C394        C  0.25407670  0.68656168  0.97063483    -0.06400
C395        C  0.22097402  0.70026903  0.99307478    -0.17600
C396        C  0.16165631  0.65865168  0.99754447     0.10800
S397        S  0.24699807  0.61030550  0.41715341    -0.32600
S398        S  0.12183680  0.66871591  0.03253775    -0.32600
H399        H  0.16530092  0.72802172  0.04140271     0.28800
H400        H  0.29818409  0.66513111  0.41013962     0.28800
H401        H  0.12904129  0.56498795  0.43113885     0.19400
H402        H  0.24246981  0.73922017  0.01050503     0.19400
C403        C  0.09016778  0.54948408  0.13002115    -0.06400
C404        C  0.13235720  0.56960348  0.15744901    -0.17600
C405        C  0.13265831  0.60408727  0.18670630     0.10800
C406        C  0.08705737  0.61729499  0.19028518    -0.06400
C407        C  0.05177643  0.60469181  0.15872069    -0.17600
C408        C  0.05291449  0.57169159  0.12947477     0.10800
S409        S  0.18947934  0.62566919  0.22040123    -0.32600
S410        S  0.00372907  0.55811634  0.09243577    -0.32600
H411        H  0.03908543  0.55691158  0.06552677     0.28800
H412        H  0.22682823  0.61556787  0.19961572     0.28800
H413        H  0.16389561  0.55601367  0.15674282     0.19400
H414        H  0.01871631  0.61467004  0.15591457     0.19400
C415        C  0.61000732  0.11934276  0.09189729    -0.06400
C416        C  0.65829993  0.16340111  0.11186310    -0.17600
C417        C  0.66320237  0.15951273  0.14958150     0.10800
C418        C  0.62044366  0.10700496  0.16821333    -0.06400
C419        C  0.56891036  0.06756253  0.14777409    -0.17600
C420        C  0.56361448  0.07242764  0.11079469     0.10800
S421        S  0.72079769  0.22553277  0.17185021    -0.32600
S422        S  0.49513475  0.01791109  0.08974612    -0.32600
H423        H  0.49184289  0.05963909  0.06793716     0.28800
H424        H  0.73341641  0.26619127  0.14374777     0.28800
H425        H  0.69259173  0.20160638  0.09771087     0.19400
H426        H  0.53217664  0.03000862  0.16089358     0.19400
C427        C  0.45926273  0.12760372  0.30205959    -0.06400
C428        C  0.47582509  0.08679202  0.31359664    -0.17600
C429        C  0.51746251  0.09915506  0.34005665     0.10800
C430        C  0.53364310  0.14562588  0.36442853    -0.06400
C431        C  0.51574553  0.18617589  0.35627341    -0.17600
C432        C  0.48190855  0.17995419  0.32460343     0.10800
S433        S  0.55326203  0.05753197  0.33890677    -0.32600
S434        S  0.46959122  0.23959007  0.31539966    -0.32600
H435        H  0.51150975  0.28149167  0.33966110     0.28800
H436        H  0.60804816  0.10567843  0.35043571     0.28800
H437        H  0.45817203  0.04453203  0.30037535     0.19400
H438        H  0.52838109  0.22291231  0.37476103     0.19400
C439        C  0.46565202  0.15497177  0.01233049    -0.06400
C440        C  0.47982342  0.18093595  0.04664349    -0.17600
C441        C  0.50120412  0.24205728  0.05016670     0.10800
C442        C  0.49889447  0.27322136  0.01993973    -0.06400
C443        C  0.45594689  0.23230791  0.48885018    -0.17600
C444        C  0.44376713  0.17433876  0.48264714     0.10800
S445        S  0.53457947  0.28007223  0.09213222    -0.32600
S446        S  0.41838123  0.13940345  0.43907126    -0.32600
H447        H  0.40774180  0.18227735  0.42476643     0.28800
H448        H  0.52052970  0.22877230  0.11189002     0.28800
H449        H  0.48828169  0.15841980  0.06797062     0.19400
H450        H  0.44899972  0.25597550  0.46756974     0.19400
C451        C  0.60583075  0.47210921  0.40996623    -0.06400
C452        C  0.65505385  0.52216138  0.39518836    -0.17600
C453        C  0.66330650  0.52861450  0.35764023     0.10800
C454        C  0.61890558  0.48549722  0.33402275    -0.06400
C455        C  0.57915229  0.42965270  0.35034274    -0.17600
C456        C  0.56993273  0.42369095  0.38727606     0.10800
S457        S  0.72900913  0.59363665  0.34097361    -0.32600
S458        S  0.51110890  0.35297778  0.40372977    -0.32600
H459        H  0.49274114  0.37755058  0.43012191     0.28800
H460        H  0.75820107  0.61401371  0.37428288     0.28800
H461        H  0.68679178  0.55635171  0.41298826     0.19400
H462        H  0.55180406  0.38992386  0.33459637     0.19400
C463        C  0.46663573  0.40357471  0.11297801    -0.06400
C464        C  0.47225920  0.43546741  0.14407918    -0.17600
C465        C  0.44188275  0.40604605  0.17517936     0.10800
C466        C  0.41346266  0.34205672  0.17779968    -0.06400
C467        C  0.40260186  0.31085359  0.14496813    -0.17600
C468        C  0.42787503  0.34090849  0.11281762     0.10800
S469        S  0.44369909  0.45255198  0.21149714    -0.32600
S470        S  0.41051752  0.29642372  0.07263907    -0.32600
H471        H  0.41847354  0.34178256  0.04909532     0.28800
H472        H  0.45683546  0.50201964  0.19005176     0.28800
H473        H  0.50064414  0.48373844  0.14399086     0.19400
H474        H  0.37461264  0.26281432  0.14380132     0.19400
C475        C  0.81618841  0.50018795  0.17556401    -0.06400
C476        C  0.85686383  0.48725424  0.16125418    -0.17600
C477        C  0.84700166  0.45469543  0.13010241     0.10800
C478        C  0.80287471  0.44613257  0.10621659    -0.06400
C479        C  0.76488704  0.46468197  0.11694982    -0.17600
C480        C  0.76949632  0.48985374  0.15164656     0.10800
S481        S  0.88949710  0.42042786  0.12413190    -0.32600
S482        S  0.71379234  0.50482009  0.16351392    -0.32600
H483        H  0.69242394  0.50271622  0.12856927     0.28800
H484        H  0.84463640  0.36913031  0.10635433     0.28800
H485        H  0.89326949  0.49504326  0.17732285     0.19400
H486        H  0.73137562  0.45896987  0.09818830     0.19400
C487        C  0.84675094  0.58445985  0.00228675    -0.06400
C488        C  0.81243651  0.61049481  0.48031409    -0.17600
C489        C  0.76883878  0.61754633  0.49535132     0.10800
C490        C  0.75285276  0.60009839  0.53129755    -0.06400
C491        C  0.80256847  0.59842282  0.05476077    -0.17600
C492        C  0.84705417  0.59307657  0.03973932     0.10800
S493        S  0.72845059  0.63862159  0.46684876    -0.32600
S494        S  0.89496940  0.58478789  0.06940966    -0.32600
H495        H  0.94023715  0.60544133  0.04433728     0.28800
H496        H  0.70869963  0.65861880  0.49520589     0.28800
H497        H  0.81562753  0.60942054  0.45136577     0.19400
H498        H  0.79404974  0.59078317  0.08325904     0.19400
C499        C  0.77058579  0.16656022  0.98042461    -0.06400
C500        C  0.82084699  0.21500425  0.45562834    -0.17600
C501        C  0.86643618  0.27067700  0.46839115     0.10800
C502        C  0.86472605  0.28742125  0.50416652    -0.06400
C503        C  0.83498034  0.23291386  0.02737891    -0.17600
C504        C  0.78741890  0.17660696  0.01694717     0.10800
S505        S  0.91821256  0.32387224  0.43736694    -0.32600
S506        S  0.74009519  0.12425341  0.05035349    -0.32600
H507        H  0.77687606  0.15426367  0.08006367     0.28800
H508        H  0.89851758  0.28566508  0.40730605     0.28800
H509        H  0.81464254  0.20606281  0.42708048     0.19400
H510        H  0.84053693  0.24596106  0.05543330     0.19400
C511        C  0.80447980  0.31558634  0.32483229    -0.06400
C512        C  0.79860976  0.36613178  0.33072144    -0.17600
C513        C  0.79324047  0.38506526  0.36445590     0.10800
C514        C  0.78895429  0.35148060  0.39427101    -0.06400
C515        C  0.78367031  0.29609062  0.38935824    -0.17600
C516        C  0.78946626  0.27660340  0.35520153     0.10800
S517        S  0.79034395  0.45195117  0.36916491    -0.32600
S518        S  0.77119912  0.19972753  0.35334005    -0.32600
H519        H  0.80283016  0.20227443  0.32318791     0.28800
H520        H  0.80976693  0.47449058  0.33447781     0.28800
H521        H  0.79561380  0.39133930  0.30914408     0.19400
H522        H  0.77641625  0.26848776  0.41253817     0.19400
O523        O  0.86440838  0.46257925  0.55722088    -0.58100
C524        C  0.85951172  0.33047923  0.00583119     0.74500
O525        O  0.89025766  0.52471453  0.99557669    -0.59300
C526        C  0.81461667  0.44410299  0.57083249     0.74500
C527        C  0.79659883  0.36726399  0.92694452     0.76900
Cd528      Cd  0.83269274  0.42882798  0.49890261     1.37500
O529        O  0.90208275  0.39379798  0.49873074    -0.58100
O530        O  0.84652770  0.41211530  0.93527940    -0.56900
C531        C  0.84711531  0.54231372  0.49219580     0.76800
O532        O  0.75679387  0.34635557  0.95070770    -0.59300
O533        O  0.81103669  0.32244914  0.01613042    -0.57800
O534        O  0.76953293  0.41414529  0.55060270    -0.57700
O535        O  0.79906339  0.49412513  0.48478482    -0.56900
O536        O  0.55254753  0.42817600  0.58688912    -0.58100
C537        C  0.70033595  0.55963834  0.03853548     0.74500
O538        O  0.50898786  0.36578728  0.00442645    -0.59300
C539        C  0.50483528  0.42671918  0.58585968     0.74500
C540        C  0.60307181  0.47960255  0.95009027     0.76900
Cd541      Cd  0.57736174  0.45310777  0.52496467     1.37500
O542        O  0.64935676  0.56081818  0.52988428    -0.58100
O543        O  0.56681752  0.48993755  0.96513345    -0.56900
C544        C  0.51831255  0.32839745  0.52060645     0.76800
O545        O  0.63002954  0.46255795  0.96979406    -0.59300
O546        O  0.68373763  0.50632945  0.04725310    -0.57800
O547        O  0.49401875  0.44734322  0.55778595    -0.57700
O548        O  0.56959246  0.35895549  0.53417274    -0.56900
O549        O  0.66698705  0.09994847  0.97005768    -0.58100
C550        C  0.56469442  0.14930975  0.90426773     0.74500
O551        O  0.63419994  0.17771596  0.53263506    -0.59300
C552        C  0.71695627  0.16086145  0.46872703     0.74500
C553        C  0.50989052  0.14401955  0.99959612     0.76900
Cd554      Cd  0.60346199  0.13885829  0.47107423     1.37500
O555        O  0.59565335  0.19545947  0.92395267    -0.58100
O556        O  0.56159952  0.18953181  0.99583949    -0.56900
C557        C  0.61118590  0.12633806  0.54725275     0.76800
O558        O  0.50216459  0.09044379  0.48734136    -0.59300
O559        O  0.55424917  0.09948807  0.91709391    -0.57800
O560        O  0.70632016  0.20266076  0.46674667    -0.57700
O561        O  0.58609978  0.08069947  0.52620700    -0.56900
O562        O  0.12320716  0.44599811  0.97801596    -0.58100
C563        C  0.11040348  0.56681149  0.50142738     0.74500
O564        O  0.14218887  0.53689630  0.58775136    -0.59300
C565        C  0.07415583  0.42256481  0.96178351     0.74500
C566        C  0.12959278  0.38657202  0.55014775     0.76900
Cd567      Cd  0.09496812  0.46887797  0.53682669     1.37500
O568        O  0.06282654  0.51389827  0.00716628    -0.58100
O569        O  0.15937615  0.42423689  0.04921231    -0.56900
C570        C  0.09498917  0.52692678  0.60171385     0.76800
O571        O  0.07524048  0.36797392  0.55069221    -0.59300
O572        O  0.15263532  0.56495474  0.51602840    -0.57800
O573        O  0.02893445  0.40501553  0.98126086    -0.57700
O574        O  0.04705392  0.48445951  0.58796300    -0.56900
O575        O  0.49160035  0.55878766  0.51899394    -0.58100
C576        C  0.33003384  0.52480997  0.57461363     0.74500
O577        O  0.35304310  0.42559360  0.03586471    -0.59300
C578        C  0.50422806  0.61177882  0.52639786     0.74500
C579        C  0.41482663  0.57208218  0.94327065     0.76900
Cd580      Cd  0.38660836  0.52558106  0.51154160     1.37500
O581        O  0.29845376  0.50217480  0.54670243    -0.58100
O582        O  0.41693453  0.53020724  0.95778049    -0.56900
C583        C  0.30719890  0.40072427  0.51410525     0.76800
O584        O  0.39049674  0.59382360  0.96158387    -0.59300
O585        O  0.38320347  0.56380464  0.56967756    -0.57800
O586        O  0.46172860  0.60953996  0.04609378    -0.57700
O587        O  0.30543671  0.43328702  0.48966977    -0.56900
O588        O  0.33328052  0.76936434  0.49177088    -0.58100
C589        C  0.42296726  0.77511525  0.56111406     0.74500
O590        O  0.54141280  0.82401055  0.99393154    -0.59300
C591        C  0.30650970  0.71753661  0.47755687     0.74500
C592        C  0.41121182  0.83311370  0.92257284     0.76900
Cd593      Cd  0.42603603  0.78494233  0.48433610     1.37500
O594        O  0.40734780  0.73035137  0.54073369    -0.58100
O595        O  0.43247517  0.86688991  0.95037600    -0.56900
C596        C  0.52893179  0.78085074  0.48153105     0.76800
O597        O  0.41500287  0.78709139  0.92180098    -0.59300
O598        O  0.43755530  0.82469805  0.54611224    -0.57800
O599        O  0.34735556  0.69528363  0.97103471    -0.57700
O600        O  0.48014811  0.73863644  0.46917027    -0.56900
C601        C  0.82167864  0.30103780  0.78081795    -0.02800
C602        C  0.62073043  0.08831661  0.70476889    -0.02800
C603        C  0.82833449  0.51834170  0.72085556    -0.02800
C604        C  0.61798919  0.50409327  0.79364462    -0.02800
C605        C  0.49271820  0.63316121  0.79332004    -0.02800
C606        C  0.48600120  0.83050713  0.71167071    -0.02800
C607        C  0.07528816  0.63710604  0.73538416    -0.02800
C608        C  0.30231608  0.85885774  0.79010227    -0.02800
C609        C  0.43036848  0.11172313  0.76747153    -0.02800
C610        C  0.39904861  0.31076569  0.72079025    -0.02800
C611        C  0.07333943  0.42493007  0.80245428    -0.02800
C612        C  0.27126786  0.43061755  0.72105322    -0.02800
C613        C  0.12420616  0.42466763  0.78114424    -0.06400
C614        C  0.11644337  0.37118411  0.76618115    -0.17600
C615        C  0.16104666  0.36970972  0.74661797     0.10800
C616        C  0.21512643  0.42390182  0.73915966    -0.06400
C617        C  0.21866004  0.47679842  0.75001115    -0.17600
C618        C  0.17959376  0.47779258  0.77393774     0.10800
S619        S  0.14390613  0.29889048  0.72791709    -0.32600
S620        S  0.20799602  0.54842601  0.79668029    -0.32600
H621        H  0.26769682  0.57180071  0.79110556     0.28800
H622        H  0.09448853  0.26234166  0.74888106     0.28800
H623        H  0.07568179  0.32960433  0.77055368     0.19400
H624        H  0.25580278  0.51925816  0.74196779     0.19400
C625        C  0.27787943  0.37481127  0.72799655    -0.06400
C626        C  0.27233965  0.33520715  0.70032931    -0.17600
C627        C  0.29882603  0.30115857  0.70333864     0.10800
C628        C  0.34403888  0.31697314  0.72971766    -0.06400
C629        C  0.33872848  0.34674129  0.76005728    -0.17600
C630        C  0.29880283  0.36573277  0.76078480     0.10800
S631        S  0.26957249  0.23613640  0.67486949    -0.32600
S632        S  0.25889999  0.35425580  0.80172972    -0.32600
H633        H  0.30208900  0.35855089  0.82529440     0.28800
H634        H  0.27985703  0.20254952  0.69973219     0.28800
H635        H  0.24624275  0.32962955  0.67663734     0.19400
H636        H  0.35897843  0.34999272  0.78538114     0.19400
C637        C  0.41066392  0.15365621  0.75003070    -0.06400
C638        C  0.37602781  0.16823869  0.77039639    -0.17600
C639        C  0.36421984  0.21285118  0.75986335     0.10800
C640        C  0.38601772  0.24486364  0.72675211    -0.06400
C641        C  0.41130708  0.22191735  0.70413223    -0.17600
C642        C  0.42037613  0.17572575  0.71362352     0.10800
S643        S  0.32003556  0.22579250  0.78999891    -0.32600
S644        S  0.44371862  0.15075085  0.67526999    -0.32600
H645        H  0.41824011  0.09044292  0.68362745     0.28800
H646        H  0.33393045  0.20595327  0.82142911     0.28800
H647        H  0.36059705  0.14655075  0.79609232     0.19400
H648        H  0.42799901  0.24143407  0.67854337     0.19400
C649        C  0.30697884  0.92257522  0.78977952    -0.06400
C650        C  0.29795484  0.94507307  0.75786215    -0.17600
C651        C  0.33017362  0.00736140  0.75030817     0.10800
C652        C  0.37220931  0.04862866  0.77592099    -0.06400
C653        C  0.35935677  0.02699374  0.81137943    -0.17600
C654        C  0.32452924  0.96548696  0.81893820     0.10800
S655        S  0.31178697  0.02959726  0.70934554    -0.32600
S656        S  0.30291874  0.95129743  0.86580211    -0.32600
H657        H  0.27219797  0.88947325  0.86754747     0.28800
H658        H  0.30039852  0.06974920  0.72669989     0.28800
H659        H  0.26677490  0.91391359  0.73831621     0.19400
H660        H  0.37705255  0.05797298  0.83382578     0.19400
C661        C  0.06916769  0.58205542  0.75731403    -0.06400
C662        C  0.09490977  0.58839987  0.79150913    -0.17600
C663        C  0.09258834  0.53976930  0.80986593     0.10800
C664        C  0.07559223  0.48453033  0.79038763    -0.06400
C665        C  0.06302228  0.48629017  0.75421050    -0.17600
C666        C  0.04596051  0.52397917  0.74134819     0.10800
S667        S  0.12031213  0.56058859  0.85556500    -0.32600
S668        S  0.99671405  0.49228460  0.70356813    -0.32600
H669        H  0.98006201  0.53358038  0.70658747     0.28800
H670        H  0.15288596  0.53349666  0.85808027     0.28800
H671        H  0.11486181  0.63089482  0.80521386     0.19400
H672        H  0.06427376  0.45663364  0.73514047     0.19400
C673        C  0.23854277  0.80693921  0.77548225    -0.06400
C674        C  0.23221234  0.78214661  0.74068586    -0.17600
C675        C  0.17776312  0.74023421  0.72496790     0.10800
C676        C  0.12904497  0.70255508  0.74721522    -0.06400
C677        C  0.13214531  0.72990037  0.78070392    -0.17600
C678        C  0.18352261  0.78415429  0.79304720     0.10800
S679        S  0.17052865  0.74763083  0.67702052    -0.32600
S680        S  0.17675154  0.82043553  0.83183240    -0.32600
H681        H  0.11539269  0.78701853  0.83347026     0.28800
H682        H  0.22964383  0.78893329  0.66966663     0.28800
H683        H  0.26875285  0.79750923  0.72356436     0.19400
H684        H  0.09394378  0.71002809  0.79711807     0.19400
C685        C  0.44435211  0.84625692  0.73188252    -0.06400
C686        C  0.41761992  0.87319435  0.71409670    -0.17600
C687        C  0.37324544  0.87975561  0.72984140     0.10800
C688        C  0.35243095  0.85776879  0.76594782    -0.06400
C689        C  0.38072850  0.82981603  0.78147030    -0.17600
C690        C  0.43178892  0.83617301  0.76872136     0.10800
S691        S  0.34107650  0.90646245  0.69828034    -0.32600
S692        S  0.48230498  0.83880407  0.80200272    -0.32600
H693        H  0.45414886  0.84225230  0.83266213     0.28800
H694        H  0.39177090  0.94347610  0.67834079     0.28800
H695        H  0.43013669  0.88728779  0.68671437     0.19400
H696        H  0.36607127  0.80397987  0.80556578     0.19400
C697        C  0.32794336  0.48727329  0.73907265    -0.06400
C698        C  0.33276604  0.49139141  0.77659240    -0.17600
C699        C  0.37916382  0.54032637  0.79462992     0.10800
C700        C  0.43339361  0.57876592  0.77603090    -0.06400
C701        C  0.42662359  0.57672574  0.73820264    -0.17600
C702        C  0.37169322  0.54032680  0.72146674     0.10800
S703        S  0.35499775  0.56215878  0.83392431    -0.32600
S704        S  0.35185199  0.57786431  0.68879785    -0.32600
H705        H  0.40719946  0.63021793  0.68490414     0.28800
H706        H  0.30518535  0.50666725  0.84246577     0.28800
H707        H  0.29397032  0.46315915  0.79143309     0.19400
H708        H  0.46061490  0.61277907  0.72267628     0.19400
C709        C  0.49941011  0.69186968  0.77572304    -0.06400
C710        C  0.44715202  0.69183061  0.77144451    -0.17600
C711        C  0.44113082  0.72953381  0.74764023     0.10800
C712        C  0.49162491  0.78246977  0.73442460    -0.06400
C713        C  0.54578638  0.78826371  0.74290053    -0.17600
C714        C  0.54997033  0.74196513  0.75991221     0.10800
S715        S  0.36698081  0.70727939  0.73534472    -0.32600
S716        S  0.62080079  0.75008358  0.76022507    -0.32600
H717        H  0.65054290  0.80181339  0.73910234     0.28800
H718        H  0.33720523  0.66417620  0.76198691     0.28800
H719        H  0.40823011  0.65731139  0.78425210     0.19400
H720        H  0.58532415  0.82760248  0.73393482     0.19400
C721        C  0.56138126  0.44745666  0.77677645    -0.06400
C722        C  0.56534130  0.41926804  0.74548433    -0.17600
C723        C  0.51586759  0.37198444  0.72793287     0.10800
C724        C  0.45849071  0.34903940  0.74245548    -0.06400
C725        C  0.45869132  0.36584672  0.77758157    -0.17600
C726        C  0.50348736  0.42044874  0.79095495     0.10800
S727        S  0.52970909  0.34410759  0.68715152    -0.32600
S728        S  0.47874251  0.44691742  0.82658918    -0.32600
H729        H  0.53065921  0.49842831  0.83614060     0.28800
H730        H  0.58985443  0.36827115  0.69243878     0.28800
H731        H  0.60677927  0.43682554  0.73250767     0.19400
H732        H  0.42360394  0.33673652  0.79509080     0.19400
C733        C  0.60800810  0.55867006  0.78718948    -0.06400
C734        C  0.61410057  0.59850743  0.81497026    -0.17600
C735        C  0.58876751  0.63355164  0.81349947     0.10800
C736        C  0.54614093  0.62307365  0.78645602    -0.06400
C737        C  0.55008280  0.59381710  0.75545170    -0.17600
C738        C  0.58355368  0.56599812  0.75481427     0.10800
S739        S  0.61480266  0.69110030  0.84754524    -0.32600
S740        S  0.59694357  0.54321063  0.71206074    -0.32600
H741        H  0.57838907  0.57403333  0.69043085     0.28800
H742        H  0.59459868  0.72459652  0.83111043     0.28800
H743        H  0.63736178  0.60297870  0.83928529     0.19400
H744        H  0.52805938  0.59287610  0.73112049     0.19400
C745        C  0.89081000  0.57755969  0.72991114    -0.06400
C746        C  0.91415404  0.58620609  0.76502722    -0.17600
C747        C  0.97513638  0.60975228  0.77030334     0.10800
C748        C  0.01447478  0.63434419  0.74025934    -0.06400
C749        C  0.99220651  0.65376828  0.71304543    -0.17600
C750        C  0.93129894  0.62119953  0.70486543     0.10800
S751        S  0.99857016  0.60701031  0.81547669    -0.32600
S752        S  0.90880701  0.63809171  0.66291160    -0.32600
H753        H  0.96458559  0.68107867  0.65037673     0.28800
H754        H  0.94478298  0.58471655  0.83270214     0.28800
H755        H  0.88424738  0.56243942  0.78666458     0.19400
H756        H  0.02285758  0.68862541  0.69533898     0.19400
C757        C  0.77818148  0.52161796  0.74187126    -0.06400
C758        C  0.74333235  0.47682498  0.76701773    -0.17600
C759        C  0.69137830  0.46821401  0.78110981     0.10800
C760        C  0.67550384  0.51182390  0.77627520    -0.06400
C761        C  0.71551797  0.56268388  0.75621250    -0.17600
C762        C  0.76582995  0.56831994  0.73951326     0.10800
S763        S  0.64600280  0.39776606  0.80377714    -0.32600
S764        S  0.81247254  0.63598117  0.71525339    -0.32600
H765        H  0.79210864  0.67050747  0.73043468     0.28800
H766        H  0.66648974  0.36532165  0.78590651     0.28800
H767        H  0.75494956  0.44561058  0.77594596     0.19400
H768        H  0.70740194  0.59847629  0.75319941     0.19400
C769        C  0.47246793  0.10517582  0.74163438    -0.06400
C770        C  0.46391484  0.04828752  0.73489927    -0.17600
C771        C  0.51203316  0.04178192  0.73157425     0.10800
C772        C  0.56534261  0.08954922  0.71781810    -0.06400
C773        C  0.56892685  0.14529097  0.71531712    -0.17600
C774        C  0.52814719  0.15513825  0.73191164     0.10800
S775        S  0.50911277  0.98565614  0.76004361    -0.32600
S776        S  0.54999211  0.23173757  0.74162594    -0.32600
H777        H  0.60263799  0.26010567  0.72268503     0.28800
H778        H  0.45588167  0.96570272  0.77691831     0.28800
H779        H  0.42364123  0.00885363  0.74220235     0.19400
H780        H  0.60851698  0.18340727  0.70512899     0.19400
C781        C  0.54362376  0.89474819  0.70599793    -0.06400
C782        C  0.57933097  0.92737755  0.73618593    -0.17600
C783        C  0.61355697  0.99142623  0.73691088     0.10800
C784        C  0.61344282  0.02359999  0.70608682    -0.06400
C785        C  0.60257226  0.99023857  0.67441858    -0.17600
C786        C  0.55818212  0.92970688  0.67359787     0.10800
S787        S  0.65031236  0.02890002  0.77825452    -0.32600
S788        S  0.51524541  0.90961089  0.63263132    -0.32600
H789        H  0.56188513  0.94314434  0.60906386     0.28800
H790        H  0.64509719  0.97863578  0.79527344     0.28800
H791        H  0.57564788  0.90396167  0.76061351     0.19400
H792        H  0.61919929  0.01265528  0.64920354     0.19400
C793        C  0.82901537  0.35453299  0.75745272    -0.06400
C794        C  0.78294548  0.34883598  0.73569533    -0.17600
C795        C  0.77999392  0.39879507  0.72499243     0.10800
C796        C  0.82730426  0.45881850  0.73287927    -0.06400
C797        C  0.87676209  0.46211718  0.74826353    -0.17600
C798        C  0.87657420  0.41407633  0.76349687     0.10800
S799        S  0.71264236  0.38259953  0.70362744    -0.32600
S800        S  0.93192758  0.43493889  0.79771841    -0.32600
H801        H  0.92410000  0.47882994  0.81327839     0.28800
H802        H  0.69563988  0.32558695  0.69028724     0.28800
H803        H  0.74586770  0.30523009  0.72952328     0.19400
H804        H  0.91778283  0.50230943  0.74995227     0.19400
C805        C  0.88365449  0.30602940  0.78066866    -0.06400
C806        C  0.90916679  0.30088654  0.81296017    -0.17600
C807        C  0.96963701  0.32475262  0.81708779     0.10800
C808        C  0.00935970  0.36703765  0.79195965    -0.06400
C809        C  0.98433261  0.35484635  0.75689628    -0.17600
C810        C  0.92311683  0.32678481  0.75071973     0.10800
S811        S  0.99300212  0.29146791  0.85040749    -0.32600
S812        S  0.90243547  0.32469666  0.70398506    -0.32600
H813        H  0.84207977  0.29644533  0.70681157     0.28800
H814        H  0.93735168  0.24097160  0.85703332     0.28800
H815        H  0.88360328  0.27953871  0.83612117     0.19400
H816        H  0.01181281  0.36665299  0.73372981     0.19400
C817        C  0.76967358  0.23883591  0.76547442    -0.06400
C818        C  0.77989931  0.20095314  0.74339125    -0.17600
C819        C  0.73400480  0.15113660  0.72396180     0.10800
C820        C  0.67507022  0.13433367  0.72898796    -0.06400
C821        C  0.66613265  0.16118018  0.75905719    -0.17600
C822        C  0.70950727  0.21638378  0.77299446     0.10800
S823        S  0.75153840  0.11179223  0.69176597    -0.32600
S824        S  0.68296248  0.25731026  0.79712675    -0.32600
H825        H  0.62278423  0.21429701  0.79663107     0.28800
H826        H  0.81245552  0.14593571  0.69695250     0.28800
H827        H  0.82405006  0.21201661  0.73937161     0.19400
H828        H  0.62333591  0.14161598  0.77040963     0.19400
C829        C  0.37941203  0.84301634  0.89300170    -0.06400
C830        C  0.32432928  0.79516534  0.88189246    -0.17600
C831        C  0.29488366  0.79721336  0.85074148     0.10800
C832        C  0.31990088  0.85114812  0.82999402    -0.06400
C833        C  0.37579712  0.89895383  0.84278308    -0.17600
C834        C  0.40363672  0.89625364  0.87398803     0.10800
S835        S  0.23616521  0.72537461  0.83490420    -0.32600
S836        S  0.47173879  0.96145050  0.88730301    -0.32600
H837        H  0.50034866  0.93083241  0.89487046     0.28800
H838        H  0.21760230  0.69949687  0.86902375     0.28800
H839        H  0.30551233  0.75410696  0.89679240     0.19400
H840        H  0.40046661  0.93891443  0.82700783     0.19400
C841        C  0.46087364  0.79784940  0.67433818    -0.06400
C842        C  0.40419369  0.78097942  0.66154386    -0.17600
C843        C  0.38864567  0.76990927  0.62499026     0.10800
C844        C  0.42822796  0.77066275  0.60041827    -0.06400
C845        C  0.47842451  0.77383614  0.61364932    -0.17600
C846        C  0.49580274  0.78792518  0.64987723     0.10800
S847        S  0.31891702  0.75800326  0.61122062    -0.32600
S848        S  0.56771612  0.80348817  0.66124817    -0.32600
H849        H  0.59184009  0.82289252  0.62695103     0.28800
H850        H  0.31364458  0.72730386  0.57909887     0.28800
H851        H  0.37189492  0.77911191  0.67921241     0.19400
H852        H  0.50720339  0.77117240  0.59475300     0.19400
C853        C  0.56271443  0.66570528  0.52182256    -0.02200
C854        C  0.57626551  0.66408833  0.99379130    -0.17600
C855        C  0.58127948  0.71453088  0.97732796     0.10800
C856        C  0.57412390  0.76805210  0.49234320    -0.06400
C857        C  0.58137946  0.76574442  0.52958932    -0.17600
C858        C  0.57654158  0.71440842  0.54461060     0.10800
S859        S  0.58712707  0.72098287  0.92948560    -0.32600
S860        S  0.57067033  0.70530868  0.59255881    -0.32600
H861        H  0.56673020  0.64980485  0.59248221     0.28800
H862        H  0.59885670  0.77977157  0.92810998     0.28800
H863        H  0.57088406  0.62798701  0.97680734     0.19400
H864        H  0.57928954  0.79740613  0.54713378     0.19400
C865        C  0.31029504  0.49789361  0.61058088    -0.06400
C866        C  0.25427792  0.47873124  0.62319220    -0.17600
C867        C  0.23527627  0.45122714  0.65724108     0.10800
C868        C  0.27418114  0.44252312  0.67941811    -0.06400
C869        C  0.32609382  0.45376913  0.66313377    -0.17600
C870        C  0.34601074  0.48426155  0.63100565     0.10800
S871        S  0.16115397  0.42661457  0.66938751    -0.32600
S872        S  0.42048194  0.50975779  0.61985045    -0.32600
H873        H  0.40700734  0.48489919  0.58524241     0.28800
H874        H  0.14378324  0.44092509  0.63714039     0.28800
H875        H  0.22606102  0.48687988  0.60667053     0.19400
H876        H  0.35569787  0.44568707  0.67803520     0.19400
C877        C  0.44059301  0.59304168  0.90698456    -0.06400
C878        C  0.45312954  0.64844227  0.89350272    -0.17600
C879        C  0.47799176  0.66874356  0.85906393     0.10800
C880        C  0.48308835  0.62885068  0.83524618    -0.06400
C881        C  0.47460588  0.57612140  0.85089936    -0.17600
C882        C  0.45678796  0.55940591  0.88606336     0.10800
S883        S  0.50486283  0.74562195  0.84859876    -0.32600
S884        S  0.45314523  0.49263651  0.90172248    -0.32600
H885        H  0.51297842  0.51657201  0.89578409     0.28800
H886        H  0.50330660  0.76489664  0.88361011     0.28800
H887        H  0.44459697  0.67649153  0.91026842     0.19400
H888        H  0.47885004  0.54552349  0.83426738     0.19400
C889        C  0.07871345  0.42465793  0.84458127    -0.06400
C890        C  0.03656116  0.43018670  0.86396098    -0.17600
C891        C  0.03531379  0.43175439  0.90151963     0.10800
C892        C  0.07192177  0.41946669  0.92176660    -0.06400
C893        C  0.11299222  0.41192499  0.90352727    -0.17600
C894        C  0.11802246  0.41526936  0.86570068     0.10800
S895        S  0.99258788  0.45783101  0.92278149    -0.32600
S896        S  0.17371806  0.40499430  0.84694045    -0.32600
H897        H  0.19800184  0.39913499  0.87908775     0.28800
H898        H  0.97540744  0.47430015  0.89127971     0.28800
H899        H  0.00612336  0.43713262  0.84922164     0.19400
H900        H  0.14212914  0.40411584  0.91940922     0.19400
C901        C  0.15173381  0.34627259  0.54635741    -0.06400
C902        C  0.19030530  0.34809455  0.57260871    -0.17600
C903        C  0.23824951  0.34425802  0.56245831     0.10800
C904        C  0.25136437  0.34710370  0.52562804    -0.06400
C905        C  0.20682040  0.32098673  0.00091456    -0.17600
C906        C  0.15348974  0.31371510  0.01140499     0.10800
S907        S  0.28647200  0.34603214  0.59676852    -0.32600
S908        S  0.09785703  0.29753998  0.97810917    -0.32600
H909        H  0.12075782  0.27835784  0.95119791     0.28800
H910        H  0.31522295  0.32805893  0.57352516     0.28800
H911        H  0.18614381  0.35774236  0.60029561     0.19400
H912        H  0.21569031  0.32156716  0.97255477     0.19400
C913        C  0.12467891  0.61401462  0.47567618    -0.06400
C914        C  0.16483608  0.59969648  0.94912805    -0.17600
C915        C  0.22491814  0.63873889  0.94567969     0.10800
C916        C  0.24381207  0.68810001  0.46962180    -0.06400
C917        C  0.21213346  0.70785857  0.48879194    -0.17600
C918        C  0.15148287  0.67106329  0.49104800     0.10800
S919        S  0.26081391  0.61940163  0.91238400    -0.32600
S920        S  0.11104242  0.68910159  0.52113088    -0.32600
H921        H  0.15582139  0.74916247  0.52679040     0.28800
H922        H  0.31219089  0.67557466  0.90939228     0.28800
H923        H  0.14382941  0.55836693  0.93372809     0.19400
H924        H  0.23464695  0.74813363  0.50507461     0.19400
C925        C  0.09625315  0.56466261  0.63200438    -0.06400
C926        C  0.13759002  0.58183743  0.65969264    -0.17600
C927        C  0.13595314  0.61151008  0.69087287     0.10800
C928        C  0.08938042  0.62288002  0.69590780    -0.06400
C929        C  0.05425040  0.61294519  0.66455472    -0.17600
C930        C  0.05787479  0.58541724  0.63331658     0.10800
S931        S  0.19183673  0.62974426  0.72481541    -0.32600
S932        S  0.01144163  0.57791159  0.59583103    -0.32600
H933        H  0.05010711  0.58277465  0.56911641     0.28800
H934        H  0.21374144  0.59587678  0.71074153     0.28800
H935        H  0.17022030  0.56993543  0.65738054     0.19400
H936        H  0.01963672  0.62084880  0.66318617     0.19400
C937        C  0.61305027  0.12022103  0.58716871    -0.06400
C938        C  0.66138539  0.16363795  0.60739448    -0.17600
C939        C  0.66578399  0.15919930  0.64515600     0.10800
C940        C  0.62205049  0.10689753  0.66362048    -0.06400
C941        C  0.57044585  0.06862403  0.64299124    -0.17600
C942        C  0.56604789  0.07359371  0.60588534     0.10800
S943        S  0.72109829  0.22634652  0.66781534    -0.32600
S944        S  0.49789858  0.01941627  0.58438639    -0.32600
H945        H  0.49569996  0.06090790  0.56178925     0.28800
H946        H  0.75735395  0.25420220  0.63814591     0.28800
H947        H  0.69540283  0.20236176  0.59346884     0.19400
H948        H  0.53305912  0.03160576  0.65601288     0.19400
C949        C  0.47004943  0.13338258  0.80389670    -0.06400
C950        C  0.49069622  0.09561675  0.81469267    -0.17600
C951        C  0.53091663  0.10900574  0.84224718     0.10800
C952        C  0.54051664  0.15153205  0.86806478    -0.06400
C953        C  0.52087800  0.19049286  0.85976671    -0.17600
C954        C  0.48974205  0.18487986  0.82697466     0.10800
S955        S  0.57380651  0.07473177  0.84087414    -0.32600
S956        S  0.48107132  0.24643418  0.81600134    -0.32600
H957        H  0.48953151  0.27024297  0.85090231     0.28800
H958        H  0.62382048  0.12320915  0.85724399     0.28800
H959        H  0.47692193  0.05479801  0.80066886     0.19400
H960        H  0.53106728  0.22611180  0.87864326     0.19400
C961        C  0.46405048  0.14954310  0.50780280    -0.06400
C962        C  0.47543575  0.17181946  0.54302144    -0.17600
C963        C  0.49049785  0.23072425  0.54916613     0.10800
C964        C  0.48590204  0.26289402  0.52035499    -0.06400
C965        C  0.46641914  0.24082260  0.98945233    -0.17600
C966        C  0.44781687  0.18030938  0.98601269     0.10800
S967        S  0.52028330  0.26577754  0.59236024    -0.32600
S968        S  0.41720564  0.14078416  0.94416945    -0.32600
H969        H  0.41378757  0.18647926  0.92705159     0.28800
H970        H  0.51824235  0.21651405  0.60861175     0.28800
H971        H  0.48632426  0.14956536  0.56321032     0.19400
H972        H  0.46070462  0.26381810  0.96723115     0.19400
C973        C  0.61149283  0.48312808  0.91105148    -0.06400
C974        C  0.66136213  0.53166698  0.89587593    -0.17600
C975        C  0.66889282  0.53691597  0.85832775     0.10800
C976        C  0.62325718  0.49389646  0.83521656    -0.06400
C977        C  0.58216829  0.43922622  0.85209609    -0.17600
C978        C  0.57381836  0.43465691  0.88898945     0.10800
S979        S  0.73593372  0.59975794  0.84112891    -0.32600
S980        S  0.51327690  0.36594731  0.90623634    -0.32600
H981        H  0.54449363  0.36296595  0.93574400     0.28800
H982        H  0.76060973  0.62794256  0.87428887     0.28800
H983        H  0.69411703  0.56554000  0.91340712     0.19400
H984        H  0.55415777  0.39893269  0.83696824     0.19400
C985        C  0.46369697  0.39875949  0.61589683    -0.06400
C986        C  0.47283007  0.43208878  0.64699523    -0.17600
C987        C  0.44425759  0.40445533  0.67895069     0.10800
C988        C  0.41529826  0.34062015  0.68243914    -0.06400
C989        C  0.40107458  0.30803633  0.64986292    -0.17600
C990        C  0.42364234  0.33639834  0.61690625     0.10800
S991        S  0.44807773  0.45247426  0.71510877    -0.32600
S992        S  0.40122849  0.29001491  0.57724905    -0.32600
H993        H  0.40873462  0.33495324  0.55351758     0.28800
H994        H  0.46550359  0.50334463  0.69402081     0.28800
H995        H  0.50300627  0.48005191  0.64637961     0.19400
H996        H  0.37215907  0.26010491  0.64942572     0.19400
C997        C  0.82146237  0.50788961  0.67895373    -0.06400
C998        C  0.86396564  0.49795125  0.66430013    -0.17600
C999        C  0.85615666  0.46800722  0.63236817     0.10800
C1000       C  0.81184946  0.45921148  0.60863805    -0.06400
C1001       C  0.77172787  0.47445056  0.61996901    -0.17600
C1002       C  0.77417991  0.49638801  0.65522793     0.10800
S1003       S  0.90095922  0.43661988  0.62528732    -0.32600
S1004       S  0.71499091  0.50570940  0.66772683    -0.32600
H1005       H  0.67547812  0.46968375  0.64038585     0.28800
H1006       H  0.85754484  0.38561920  0.60655002     0.28800
H1007       H  0.90044684  0.50618786  0.68045048     0.19400
H1008       H  0.73832265  0.46895022  0.60116624     0.19400
C1009       C  0.84535564  0.59557215  0.50243235    -0.06400
C1010       C  0.81731924  0.60409730  0.98057341    -0.17600
C1011       C  0.77908740  0.61858635  0.99619681     0.10800
C1012       C  0.76300195  0.60281053  0.03231204    -0.06400
C1013       C  0.79496104  0.60126195  0.55424782    -0.17600
C1014       C  0.84417327  0.60413174  0.53976927     0.10800
S1015       S  0.74430503  0.64679410  0.96822855    -0.32600
S1016       S  0.89680996  0.60464785  0.56991167    -0.32600
H1017       H  0.94087513  0.62476176  0.54400128     0.28800
H1018       H  0.72815261  0.66961581  0.99699406     0.28800
H1019       H  0.81937739  0.60227146  0.95158644     0.19400
H1020       H  0.78620970  0.59270004  0.58266042     0.19400
C1021       C  0.77638579  0.17650597  0.47883114    -0.06400
C1022       C  0.81271939  0.20187252  0.95510203    -0.17600
C1023       C  0.86071218  0.25776521  0.96551938     0.10800
C1024       C  0.86409190  0.27733182  0.00129007    -0.06400
C1025       C  0.83259956  0.24102199  0.52870483    -0.17600
C1026       C  0.78908093  0.18419527  0.51592177     0.10800
S1027       S  0.90759035  0.30851075  0.93167398    -0.32600
S1028       S  0.74168192  0.12634720  0.54673404    -0.32600
H1029       H  0.77534271  0.15483808  0.57777587     0.28800
H1030       H  0.88748831  0.26629124  0.90356399     0.28800
H1031       H  0.80251101  0.19122581  0.92688070     0.19400
H1032       H  0.83384671  0.25173479  0.55692865     0.19400
C1033       C  0.80569419  0.31133831  0.82031377    -0.06400
C1034       C  0.80061275  0.36200747  0.82752431    -0.17600
C1035       C  0.79437991  0.37888074  0.86159939     0.10800
C1036       C  0.78722502  0.34249513  0.89049806    -0.06400
C1037       C  0.78125203  0.28704368  0.88422478    -0.17600
C1038       C  0.78894684  0.27007523  0.84970577     0.10800
S1039       S  0.79410651  0.44701038  0.86775085    -0.32600
S1040       S  0.77091215  0.19334682  0.84624203    -0.32600
H1041       H  0.80250222  0.19723886  0.81576084     0.28800
H1042       H  0.81917267  0.47305781  0.83456067     0.28800
H1043       H  0.79867505  0.38904094  0.80674980     0.19400
H1044       H  0.77216528  0.25745328  0.90667205     0.19400
loop_ 
_geom_bond_atom_site_label_1 
_geom_bond_atom_site_label_2 
_geom_bond_distance 
_geom_bond_site_symmetry_2 
_ccdc_geom_bond_type 
O1            C4   1.271       .  A
O1           Cd6   2.321   1_554  S
C2           O11   1.272       .  A
C2          O529   1.279       .  A
C2          C502   1.480       .  S
O3          C531   1.279       .  A
O3         Cd528   2.472       .  S
C4           O12   1.279       .  A
C4          C478   1.483       .  S
C5           O10   1.277       .  A
C5            O8   1.272       .  A
C5          C514   1.465       .  S
Cd6          O13   2.391       .  S
Cd6          O12   2.507   1_556  S
Cd6           O7   2.488       .  S
Cd6         O525   2.459       .  S
Cd6         O533   2.361   1_556  S
Cd6         O532   2.462       .  S
Cd6         O530   2.355       .  S
O7          C524   1.278   1_556  A
O8         Cd528   2.361       .  S
C9           O13   1.273       .  A
C9          O525   1.278       .  A
C9          C487   1.478   1_556  S
O10        Cd528   2.452       .  S
O11        Cd528   2.369       .  S
O14          C17   1.265       .  A
O14         Cd19   2.386       .  S
C15          O24   1.273       .  A
C15         O542   1.271       .  A
C15         C490   1.477       .  S
O16         C544   1.269       .  A
O16        Cd541   2.408       .  S
C17          O25   1.277       .  A
C17         C463   1.474       .  S
C18          O23   1.268       .  A
C18          O21   1.279       .  A
C18         C451   1.477       .  S
Cd19         O26   2.407       .  S
Cd19         O25   2.498       .  S
Cd19         O20   2.462       .  S
Cd19        O538   2.407       .  S
Cd19        O546   2.402       .  S
Cd19        O545   2.402   1_554  S
Cd19        O543   2.471   1_554  S
O20         C537   1.272       .  A
O21        Cd541   2.481       .  S
C22          O26   1.273       .  A
C22         O538   1.267       .  A
C22         C442   1.465       .  S
O23        Cd541   2.431       .  S
O24        Cd541   2.418       .  S
O27         C552   1.277       .  A
O27        Cd554   2.463       .  S
C28          O37   1.282       .  A
C28          O33   1.275       .  A
C28         C430   1.511       .  S
O29          C35   1.277       .  A
O29         Cd32   2.449   1_554  S
C30          O38   1.277       .  A
C30         O549   1.277       .  A
C30         C499   1.469       .  S
C31          O34   1.281       .  A
C31         O558   1.279       .  A
C31         C961   1.452       .  S
Cd32         O39   2.452   1_556  S
Cd32         O38   2.359       .  S
Cd32         O36   2.412       .  S
Cd32        O549   2.458       .  S
Cd32        O559   2.445       .  S
Cd32        O555   2.527       .  S
Cd32        O556   2.264       .  S
O33        Cd554   2.531       .  S
O34        Cd554   2.280       .  S
C35          O39   1.282       .  A
C35         C415   1.496       .  S
O36         C553   1.280       .  A
O37        Cd554   2.451       .  S
O40          C43   1.275       .  A
O40        Cd567   2.439       .  S
C41          O50   1.279       .  A
C41         O568   1.274       .  A
C41         C391   1.448   1_554  S
O42          C48   1.270       .  A
O42         Cd45   2.441       .  S
C43          O51   1.283       .  A
C43         C370   1.491       .  S
C44          O49   1.276       .  A
C44         O569   1.270       .  A
C44         C379   1.470       .  S
Cd45         O52   2.475       .  S
Cd45         O50   2.303       .  S
Cd45         O49   2.482       .  S
Cd45        O562   2.416   1_554  S
Cd45        O573   2.483   1_554  S
Cd45        O568   2.418       .  S
Cd45        O569   2.371       .  S
O46         C563   1.276       .  A
O46        Cd567   2.421       .  S
O47         C566   1.272       .  A
O47        Cd567   2.380       .  S
C48          O52   1.282       .  A
C48         C403   1.493       .  S
O51        Cd567   2.459       .  S
O53          C56   1.272       .  A
O53         Cd58   2.489       .  S
C54          O63   1.266       .  A
C54          O59   1.265       .  A
C54         C343   1.478       .  S
O55         C583   1.276       .  A
O55        Cd580   2.493       .  S
C56         O586   1.266       .  A
C56         C331   1.477       .  S
C57          O62   1.278       .  A
C57          O60   1.264       .  A
C57         C355   1.476       .  S
Cd58         O65   2.410   1_554  S
Cd58         O63   2.430       .  S
Cd58         O59   2.478       .  S
Cd58        O577   2.495       .  S
Cd58        O586   2.389       .  S
Cd58        O584   2.565   1_554  S
Cd58        O582   2.297   1_554  S
O60        Cd580   2.328       .  S
C61          O65   1.268   1_554  A
C61         O577   1.274       .  A
C61         C382   1.488       .  S
O62        Cd580   2.506       .  S
O64         C578   1.268       .  A
O64        Cd580   2.348       .  S
O66          C69   1.270       .  A
O66         Cd71   2.338       .  S
C67          O76   1.278       .  A
C67          O72   1.267       .  A
C67         C322   1.474       .  S
O68         C596   1.272       .  A
O68        Cd593   2.474       .  S
C69         O599   1.277       .  A
C69         C394   1.462       .  S
C70          O75   1.270       .  A
C70          O73   1.281       .  A
C70         C307   1.497       .  S
Cd71         O78   2.422       .  S
Cd71         O76   2.461   1_556  S
Cd71         O72   2.437   1_556  S
Cd71        O590   2.480       .  S
Cd71        O599   2.395       .  S
Cd71        O597   2.420       .  S
Cd71        O595   2.512       .  S
O73        Cd593   2.503       .  S
C74          O78   1.272       .  A
C74         O590   1.272       .  A
C74         C334   1.481       .  S
O75        Cd593   2.422       .  S
O77         C591   1.278       .  A
O77        Cd593   2.403       .  S
C79         C271   1.576       .  S
C79         C283   1.606       .  S
C79         C295   1.592       .  S
C79         C511   1.597       .  S
C80         C250   1.592       .  S
C80         C262   1.611       .  S
C80         C298   1.593       .  S
C80         C418   1.602       .  S
C81         C223   1.613       .  S
C81         C235   1.619       .  S
C81         C274   1.613       .  S
C81         C475   1.584       .  S
C82         C199   1.584       .  S
C82         C211   1.611       .  S
C82         C238   1.604       .  S
C82         C454   1.594       .  S
C83         C178   1.609       .  S
C83         C187   1.600       .  S
C83         C214   1.616       .  S
C83         C358   1.573       .  S
C84         C163   1.579       .  S
C84         C190   1.591       .  S
C84         C259   1.598       .  S
C84         C319   1.576       .  S
C85         C139   1.594       .  S
C85         C154   1.620       .  S
C85         C226   1.620       .  S
C85         C406   1.617       .  S
C86         C127   1.617       .  S
C86         C151   1.613       .  S
C86         C166   1.644       .  S
C86         C310   1.604       .  S
C87         C115   1.601       .  S
C87         C130   1.605       .  S
C87         C247   1.573       .  S
C87         C427   1.624       .  S
C88         C106   1.611       .  S
C88         C118   1.598       .  S
C88         C202   1.580       .  S
C88         C466   1.578       .  S
C89          C91   1.597       .  S
C89         C142   1.605       .  S
C89         C286   1.630       .  S
C89         C367   1.575       .  S
C90          C94   1.591       .  S
C90         C103   1.595       .  S
C90         C175   1.606       .  S
C90         C346   1.576       .  S
C91          C92   1.423       .  A
C91          C96   1.435       .  A
C92          C93   1.431       .  A
C92         H101   1.080       .  S
C93          C94   1.431       .  A
C93          S97   1.805       .  S
C94          C95   1.406       .  A
C95          C96   1.400       .  A
C95         H102   1.080       .  S
C96          S98   1.802       .  S
S97         H100   1.406       .  S
S98          H99   1.403       .  S
C103        C104   1.416       .  A
C103        C108   1.413       .  A
C104        C105   1.419       .  A
C104        H113   1.082       .  S
C105        C106   1.437       .  A
C105        S109   1.797       .  S
C106        C107   1.425       .  A
C107        C108   1.405       .  A
C107        H114   1.058       .  S
C108        S110   1.806       .  S
S109        H112   1.403       .  S
S110        H111   1.407       .  S
C115        C116   1.411       .  A
C115        C120   1.447       .  A
C116        C117   1.428       .  A
C116        H125   1.082       .  S
C117        C118   1.439       .  A
C117        S121   1.806       .  S
C118        C119   1.410       .  A
C119        C120   1.410       .  A
C119        H126   1.069       .  S
C120        S122   1.820       .  S
S121        H124   1.406       .  S
S122        H123   1.394       .  S
C127        C128   1.405       .  A
C127        C132   1.444       .  A
C128        C129   1.422   1_565  A
C128        H137   1.080       .  S
C129        C130   1.429       .  A
C129        S133   1.792       .  S
C130        C131   1.412       .  A
C131        C132   1.413   1_545  A
C131        H138   1.081       .  S
C132        S134   1.815       .  S
S133        H136   1.405       .  S
S134        H135   1.406       .  S
C139        C140   1.410       .  A
C139        C144   1.434       .  A
C140        C141   1.422       .  A
C140        H149   1.075       .  S
C141        C142   1.462       .  A
C141        S145   1.815       .  S
C142        C143   1.394       .  A
C143        C144   1.381       .  A
C143        H150   1.068       .  S
C144        S146   1.797   1_455  S
S145        H148   1.395       .  S
S146        H147   1.384       .  S
C151        C152   1.417       .  A
C151        C156   1.434       .  A
C152        C153   1.413       .  A
C152        H161   1.064       .  S
C153        C154   1.431       .  A
C153        S157   1.816       .  S
C154        C155   1.417       .  A
C155        C156   1.433       .  A
C155        H162   1.067       .  S
C156        S158   1.797       .  S
S157        H160   1.406       .  S
S158        H159   1.406       .  S
C163        C164   1.410       .  A
C163        C168   1.409       .  A
C164        C165   1.423       .  A
C164        H173   1.078       .  S
C165        C166   1.457       .  A
C165        S169   1.802       .  S
C166        C167   1.433       .  A
C167        C168   1.387       .  A
C167        H174   1.065       .  S
C168        S170   1.809       .  S
S169        H172   1.409       .  S
S170        H171   1.408       .  S
C175        C176   1.400       .  A
C175        C180   1.435       .  A
C176        C177   1.389       .  A
C176        H185   1.072       .  S
C177        C178   1.448       .  A
C177        S181   1.821       .  S
C178        C179   1.414       .  A
C179        C180   1.415       .  A
C179        H186   1.080       .  S
C180        S182   1.810       .  S
S181        H184   1.406       .  S
S182        H183   1.407       .  S
C187        C188   1.411       .  A
C187        C192   1.437       .  A
C188        C189   1.394       .  A
C188        H197   1.072       .  S
C189        C190   1.431       .  A
C189        S193   1.812       .  S
C190        C191   1.420       .  A
C191        C192   1.435       .  A
C191        H198   1.079       .  S
C192        S194   1.804       .  S
S193        H196   1.405       .  S
S194        H195   1.406       .  S
C199        C200   1.413       .  A
C199        C204   1.441       .  A
C200        C201   1.403       .  A
C200        H209   1.077       .  S
C201        C202   1.441       .  A
C201        S205   1.810       .  S
C202        C203   1.385       .  A
C203        C204   1.395       .  A
C203        H210   1.076       .  S
C204        S206   1.802       .  S
S205        H208   1.408       .  S
S206        H207   1.383       .  S
C211        C212   1.412       .  A
C211        C216   1.434       .  A
C212        C213   1.405       .  A
C212        H221   1.067       .  S
C213        C214   1.435       .  A
C213        S217   1.800       .  S
C214        C215   1.420       .  A
C215        C216   1.433       .  A
C215        H222   1.072       .  S
C216        S218   1.807       .  S
S217        H220   1.396       .  S
S218        H219   1.407       .  S
C223        C224   1.409       .  A
C223        C228   1.439       .  A
C224        C225   1.430       .  A
C224        H233   1.083       .  S
C225        C226   1.450   1_655  A
C225        S229   1.805       .  S
C226        C227   1.403   1_455  A
C227        C228   1.426       .  A
C227        H234   1.082   1_655  S
C228        S230   1.805       .  S
S229        H232   1.407       .  S
S230        H231   1.407       .  S
C235        C236   1.417       .  A
C235        C240   1.436       .  A
C236        C237   1.402       .  A
C236        H245   1.073       .  S
C237        C238   1.430       .  A
C237        S241   1.809       .  S
C238        C239   1.421       .  A
C239        C240   1.439       .  A
C239        H246   1.080       .  S
C240        S242   1.799       .  S
S241        H244   1.407       .  S
S242        H243   1.406       .  S
C247        C248   1.412       .  A
C247        C252   1.430       .  A
C248        C249   1.403       .  A
C248        H257   1.071       .  S
C249        C250   1.417       .  A
C249        S253   1.781   1_545  S
C250        C251   1.422       .  A
C251        C252   1.403       .  A
C251        H258   1.082       .  S
C252        S254   1.812       .  S
S253        H256   1.398       .  S
S254        H255   1.405       .  S
C259        C260   1.427       .  A
C259        C264   1.444       .  A
C260        C261   1.436       .  A
C260        H269   1.075       .  S
C261        C262   1.429   1_565  A
C261        S265   1.805   1_565  S
C262        C263   1.403   1_545  A
C263        C264   1.397       .  A
C263        H270   1.077   1_565  S
C264        S266   1.808       .  S
S265        H268   1.406   1_545  S
S266        H267   1.407       .  S
C271        C272   1.415       .  A
C271        C276   1.422       .  A
C272        C273   1.413       .  A
C272        H281   1.072       .  S
C273        C274   1.441       .  A
C273        S277   1.812       .  S
C274        C275   1.406       .  A
C275        C276   1.384       .  A
C275        H282   1.055       .  S
C276        S278   1.805       .  S
S277        H280   1.405       .  S
S278        H279   1.403       .  S
C283        C284   1.422       .  A
C283        C288   1.444       .  A
C284        C285   1.412       .  A
C284        H293   1.067       .  S
C285        C286   1.423   1_655  A
C285        S289   1.809       .  S
C286        C287   1.417   1_455  A
C287        C288   1.421       .  A
C287        H294   1.077   1_655  S
C288        S290   1.814       .  S
S289        H292   1.407       .  S
S290        H291   1.390       .  S
C295        C296   1.425       .  A
C295        C300   1.434       .  A
C296        C297   1.423       .  A
C296        H305   1.079       .  S
C297        C298   1.427       .  A
C297        S301   1.802       .  S
C298        C299   1.415       .  A
C299        C300   1.396       .  A
C299        H306   1.076       .  S
C300        S302   1.817       .  S
S301        H304   1.397       .  S
S302        H303   1.406       .  S
C307        C308   1.405       .  A
C307        C312   1.393       .  A
C308        C309   1.417       .  A
C308        H317   1.077       .  S
C309        C310   1.442       .  A
C309        S313   1.808       .  S
C310        C311   1.437       .  A
C311        C312   1.400       .  A
C311        H318   1.079       .  S
C312        S314   1.794       .  S
S313        H316   1.406       .  S
S314        H315   1.407       .  S
C319        C320   1.424       .  A
C319        C324   1.434       .  A
C320        C321   1.400       .  A
C320        H329   1.075       .  S
C321        C322   1.402       .  A
C321        S325   1.806       .  S
C322        C323   1.396       .  A
C323        C324   1.406       .  A
C323        H330   1.079       .  S
C324        S326   1.807       .  S
S325        H328   1.404       .  S
S326        H327   1.406       .  S
C331        C336   1.411       .  A
C331        C854   1.405   1_554  A
C332        C333   1.404       .  A
C332        C853   1.405       .  A
C332        H341   1.084       .  S
C333        C856   1.405       .  A
C333        S337   1.791       .  S
C334        C335   1.405   1_556  A
C334        C855   1.407       .  A
C335        C336   1.406       .  A
C335        H342   1.081       .  S
C336        S338   1.800       .  S
S337        H340   1.408       .  S
S338        H339   1.409       .  S
C343        C344   1.398       .  A
C343        C348   1.406       .  A
C344        C345   1.418       .  A
C344        H353   1.080       .  S
C345        C346   1.441       .  A
C345        S349   1.808       .  S
C346        C347   1.413       .  A
C347        C348   1.392       .  A
C347        H354   1.081       .  S
C348        S350   1.800       .  S
S349        H352   1.406       .  S
S350        H351   1.395       .  S
C355        C356   1.401       .  A
C355        C360   1.402       .  A
C356        C357   1.415       .  A
C356        H365   1.082       .  S
C357        C358   1.436       .  A
C357        S361   1.800       .  S
C358        C359   1.419       .  A
C359        C360   1.389       .  A
C359        H366   1.078       .  S
C360        S362   1.802       .  S
S361        H364   1.407       .  S
S362        H363   1.408       .  S
C367        C368   1.422       .  A
C367        C372   1.437       .  A
C368        C369   1.399       .  A
C368        H377   1.076       .  S
C369        C370   1.404       .  A
C369        S373   1.812   1_455  S
C370        C371   1.405       .  A
C371        C372   1.417       .  A
C371        H378   1.082       .  S
C372        S374   1.807       .  S
S373        H376   1.407       .  S
S374        H375   1.406       .  S
C379        C380   1.402       .  A
C379        C906   1.411       .  A
C380        C381   1.402       .  A
C380        H389   1.083       .  S
C381        C382   1.409       .  A
C381        S385   1.791       .  S
C382        C905   1.406       .  A
C383        C384   1.407       .  A
C383        C904   1.407       .  A
C383        H390   1.083       .  S
C384        C901   1.411       .  A
C384        S386   1.807       .  S
S385        H388   1.404       .  S
S386        H387   1.406       .  S
C391        C396   1.398       .  A
C391        C914   1.399       .  A
C392        C393   1.398       .  A
C392        C913   1.400       .  A
C392        H401   1.082       .  S
C393        C916   1.418       .  A
C393        S397   1.807       .  S
C394        C395   1.406       .  A
C394        C915   1.416       .  A
C395        C396   1.393       .  A
C395        H402   1.083   1_556  S
C396        S398   1.802   1_556  S
S397        H400   1.400       .  S
S398        H399   1.407       .  S
C403        C404   1.399       .  A
C403        C408   1.404       .  A
C404        C405   1.414       .  A
C404        H413   1.083       .  S
C405        C406   1.451       .  A
C405        S409   1.813       .  S
C406        C407   1.428       .  A
C407        C408   1.403       .  A
C407        H414   1.058       .  S
C408        S410   1.803       .  S
S409        H412   1.407       .  S
S410        H411   1.401       .  S
C415        C416   1.406       .  A
C415        C420   1.404       .  A
C416        C417   1.418       .  A
C416        H425   1.083       .  S
C417        C418   1.434       .  A
C417        S421   1.801       .  S
C418        C419   1.429       .  A
C419        C420   1.396       .  A
C419        H426   1.083       .  S
C420        S422   1.804       .  S
S421        H424   1.407       .  S
S422        H423   1.406       .  S
C427        C428   1.429       .  A
C427        C432   1.441       .  A
C428        C429   1.389       .  A
C428        H437   1.069       .  S
C429        C430   1.392       .  A
C429        S433   1.803       .  S
C430        C431   1.416       .  A
C431        C432   1.439       .  A
C431        H438   1.082       .  S
C432        S434   1.800       .  S
S433        H436   1.408       .  S
S434        H435   1.404       .  S
C439        C553   1.450   1_554  S
C439        C440   1.399       .  A
C439        C966   1.402   1_554  A
C440        C441   1.399       .  A
C440        H449   1.083       .  S
C441        C442   1.413       .  A
C441        S445   1.809       .  S
C442        C965   1.405   1_554  A
C443        C444   1.399       .  A
C443        C964   1.403       .  A
C443        H450   1.083       .  S
C444        C961   1.404       .  A
C444        S446   1.805       .  S
S445        H448   1.405       .  S
S446        H447   1.407       .  S
C451        C452   1.403       .  A
C451        C456   1.398       .  A
C452        C453   1.414       .  A
C452        H461   1.075       .  S
C453        C454   1.427       .  A
C453        S457   1.809       .  S
C454        C455   1.425       .  A
C455        C456   1.394       .  A
C455        H462   1.076       .  S
C456        S458   1.805       .  S
S457        H460   1.407       .  S
S458        H459   1.405       .  S
C463        C464   1.389       .  A
C463        C468   1.412       .  A
C464        C465   1.400       .  A
C464        H473   1.083       .  S
C465        C466   1.440       .  A
C465        S469   1.806       .  S
C466        C467   1.411       .  A
C467        C468   1.404       .  A
C467        H474   1.078       .  S
C468        S470   1.798       .  S
S469        H472   1.407       .  S
S470        H471   1.405       .  S
C475        C476   1.417       .  A
C475        C480   1.438       .  A
C476        C477   1.379       .  A
C476        H485   1.067       .  S
C477        C478   1.397       .  A
C477        S481   1.809       .  S
C478        C479   1.408       .  A
C479        C480   1.425       .  A
C479        H486   1.082       .  S
C480        S482   1.801       .  S
S481        H484   1.408       .  S
S482        H483   1.407       .  S
C487        C492   1.412       .  A
C487       C1010   1.404   1_554  A
C488        C489   1.404       .  A
C488       C1009   1.405       .  A
C488        H497   1.083       .  S
C489        C490   1.411       .  A
C489        S493   1.799       .  S
C490       C1013   1.402       .  A
C491        C492   1.401       .  A
C491       C1012   1.401       .  A
C491        H498   1.084       .  S
C492        S494   1.791       .  S
S493        H496   1.407       .  S
S494        H495   1.407       .  S
C499        C504   1.409   1_556  A
C499       C1022   1.397       .  A
C500        C501   1.403       .  A
C500       C1021   1.396       .  A
C500        H509   1.080       .  S
C501        C502   1.411       .  A
C501        S505   1.793       .  S
C502       C1025   1.406       .  A
C503        C504   1.405       .  A
C503       C1024   1.405       .  A
C503        H510   1.083       .  S
C504        S506   1.803       .  S
S505        H508   1.403       .  S
S506        H507   1.407       .  S
C511        C512   1.437       .  A
C511        C516   1.438       .  A
C512        C513   1.387       .  A
C512        H521   1.072       .  S
C513        C514   1.387       .  A
C513        S517   1.811       .  S
C514        C515   1.400       .  A
C515        C516   1.411       .  A
C515        H522   1.079       .  S
C516        S518   1.814       .  S
S517        H520   1.407       .  S
S518        H519   1.396       .  S
O523        C526   1.273       .  A
O523       Cd528   2.322       .  S
C524        O533   1.272       .  A
C524       C1024   1.478       .  S
C526        O534   1.279       .  A
C526       C1000   1.475       .  S
C527        O532   1.278       .  A
C527        O530   1.271       .  A
C527       C1036   1.465       .  S
Cd528       O535   2.385       .  S
Cd528       O534   2.474       .  S
Cd528       O529   2.484       .  S
C531        O535   1.273       .  A
C531       C1009   1.477       .  S
O536        C539   1.267       .  A
O536       Cd541   2.400       .  S
C537        O546   1.271       .  A
C537       C1012   1.477       .  S
C539        O547   1.278       .  A
C539        C985   1.478       .  S
C540        O545   1.266       .  A
C540        O543   1.278       .  A
C540        C973   1.469       .  S
Cd541       O548   2.400       .  S
Cd541       O547   2.501       .  S
Cd541       O542   2.454       .  S
C544        O548   1.275       .  A
C544        C964   1.465       .  S
C550        O559   1.281       .  A
C550        O555   1.275       .  A
C550        C952   1.506       .  S
O551        C557   1.278       .  A
O551       Cd554   2.460       .  S
C552        O560   1.277       .  A
C552       C1021   1.473       .  S
C553        O556   1.280       .  A
Cd554       O561   2.458       .  S
Cd554       O560   2.372       .  S
Cd554       O558   2.410       .  S
C557        O561   1.282       .  A
C557        C937   1.498       .  S
O562        C565   1.272       .  A
C563        O572   1.281       .  A
C563        C913   1.455       .  S
O564        C570   1.272       .  A
O564       Cd567   2.442       .  S
C565        O573   1.284       .  A
C565        C892   1.491       .  S
C566        O571   1.277       .  A
C566        C901   1.474       .  S
Cd567       O574   2.463       .  S
Cd567       O572   2.300       .  S
Cd567       O571   2.474       .  S
C570        O574   1.282       .  A
C570        C925   1.490       .  S
O575        C578   1.278       .  A
O575       Cd580   2.495       .  S
C576        O585   1.263       .  A
C576        O581   1.267       .  A
C576        C865   1.482       .  S
C578        C853   1.474       .  S
C579        O584   1.275       .  A
C579        O582   1.256       .  A
C579        C877   1.492       .  S
Cd580       O587   2.388       .  S
Cd580       O585   2.409       .  S
Cd580       O581   2.501       .  S
C583        O587   1.268       .  A
C583        C904   1.487       .  S
O588        C591   1.270       .  A
O588       Cd593   2.330       .  S
C589        O598   1.278       .  A
C589        O594   1.269       .  A
C589        C844   1.479       .  S
C591        C916   1.467       .  S
C592        O597   1.269       .  A
C592        O595   1.280       .  A
C592        C829   1.494       .  S
Cd593       O600   2.413       .  S
Cd593       O598   2.474       .  S
Cd593       O594   2.447       .  S
C596        O600   1.273       .  A
C596        C856   1.478       .  S
C601        C793   1.578       .  S
C601        C805   1.605       .  S
C601        C817   1.591       .  S
C601       C1033   1.599       .  S
C602        C772   1.591       .  S
C602        C784   1.609       .  S
C602        C820   1.589       .  S
C602        C940   1.604       .  S
C603        C745   1.611       .  S
C603        C757   1.610       .  S
C603        C796   1.616       .  S
C603        C997   1.576       .  S
C604        C721   1.589       .  S
C604        C733   1.613       .  S
C604        C760   1.597       .  S
C604        C976   1.589       .  S
C605        C700   1.607       .  S
C605        C709   1.600       .  S
C605        C736   1.619       .  S
C605        C880   1.579       .  S
C606        C685   1.583       .  S
C606        C712   1.594       .  S
C606        C781   1.597       .  S
C606        C841   1.579       .  S
C607        C661   1.596       .  S
C607        C676   1.616       .  S
C607        C748   1.614       .  S
C607        C928   1.614       .  S
C608        C649   1.614       .  S
C608        C673   1.619       .  S
C608        C688   1.643       .  S
C608        C832   1.600       .  S
C609        C637   1.593       .  S
C609        C652   1.605       .  S
C609        C769   1.572       .  S
C609        C949   1.623       .  S
C610        C628   1.613       .  S
C610        C640   1.594       .  S
C610        C724   1.582       .  S
C610        C988   1.581       .  S
C611        C613   1.594       .  S
C611        C664   1.603       .  S
C611        C808   1.631       .  S
C611        C889   1.574       .  S
C612        C616   1.585       .  S
C612        C625   1.591       .  S
C612        C697   1.607       .  S
C612        C868   1.576       .  S
C613        C614   1.422       .  A
C613        C618   1.436       .  A
C614        C615   1.430       .  A
C614        H623   1.080       .  S
C615        C616   1.432       .  A
C615        S619   1.804       .  S
C616        C617   1.403       .  A
C617        C618   1.397       .  A
C617        H624   1.080       .  S
C618        S620   1.800       .  S
S619        H622   1.406       .  S
S620        H621   1.405       .  S
C625        C626   1.414       .  A
C625        C630   1.412       .  A
C626        C627   1.414       .  A
C626        H635   1.083       .  S
C627        C628   1.437       .  A
C627        S631   1.797       .  S
C628        C629   1.425       .  A
C629        C630   1.406       .  A
C629        H636   1.065       .  S
C630        S632   1.806       .  S
S631        H634   1.404       .  S
S632        H633   1.407       .  S
C637        C638   1.409       .  A
C637        C642   1.446       .  A
C638        C639   1.424       .  A
C638        H647   1.083       .  S
C639        C640   1.438       .  A
C639        S643   1.802       .  S
C640        C641   1.408       .  A
C641        C642   1.406       .  A
C641        H648   1.067       .  S
C642        S644   1.822       .  S
S643        H646   1.408       .  S
S644        H645   1.394       .  S
C649        C650   1.403       .  A
C649        C654   1.450       .  A
C650        C651   1.423   1_565  A
C650        H659   1.081       .  S
C651        C652   1.432       .  A
C651        S655   1.791       .  S
C652        C653   1.410       .  A
C653        C654   1.408   1_545  A
C653        H660   1.082       .  S
C654        S656   1.820       .  S
S655        H658   1.405       .  S
S656        H657   1.384       .  S
C661        C662   1.411       .  A
C661        C666   1.436       .  A
C662        C663   1.424       .  A
C662        H671   1.077       .  S
C663        C664   1.462       .  A
C663        S667   1.815       .  S
C664        C665   1.392       .  A
C665        C666   1.380       .  A
C665        H672   1.069       .  S
C666        S668   1.797   1_455  S
S667        H670   1.396       .  S
S668        H669   1.383       .  S
C673        C674   1.418       .  A
C673        C678   1.438       .  A
C674        C675   1.410       .  A
C674        H683   1.064       .  S
C675        C676   1.429       .  A
C675        S679   1.816       .  S
C676        C677   1.418       .  A
C677        C678   1.438       .  A
C677        H684   1.073       .  S
C678        S680   1.793       .  S
S679        H682   1.406       .  S
S680        H681   1.407       .  S
C685        C686   1.411       .  A
C685        C690   1.407       .  A
C686        C687   1.427       .  A
C686        H695   1.080       .  S
C687        C688   1.459       .  A
C687        S691   1.804       .  S
C688        C689   1.429       .  A
C689        C690   1.385       .  A
C689        H696   1.071       .  S
C690        S692   1.806       .  S
S691        H694   1.408       .  S
S692        H693   1.406       .  S
C697        C698   1.400       .  A
C697        C702   1.431       .  A
C698        C699   1.399       .  A
C698        H707   1.069       .  S
C699        C700   1.449       .  A
C699        S703   1.818       .  S
C700        C701   1.416       .  A
C701        C702   1.408       .  A
C701        H708   1.081       .  S
C702        S704   1.814       .  S
S703        H706   1.406       .  S
S704        H705   1.407       .  S
C709        C710   1.416       .  A
C709        C714   1.436       .  A
C710        C711   1.402       .  A
C710        H719   1.076       .  S
C711        C712   1.431       .  A
C711        S715   1.815       .  S
C712        C713   1.418       .  A
C713        C714   1.430       .  A
C713        H720   1.078       .  S
C714        S716   1.806       .  S
S715        H718   1.404       .  S
S716        H717   1.406       .  S
C721        C722   1.415       .  A
C721        C726   1.437       .  A
C722        C723   1.409       .  A
C722        H731   1.077       .  S
C723        C724   1.442       .  A
C723        S727   1.811       .  S
C724        C725   1.379       .  A
C725        C726   1.388       .  A
C725        H732   1.074       .  S
C726        S728   1.788       .  S
S727        H730   1.406       .  S
S728        H729   1.382       .  S
C733        C734   1.417       .  A
C733        C738   1.430       .  A
C734        C735   1.409       .  A
C734        H743   1.067       .  S
C735        C736   1.433       .  A
C735        S739   1.803       .  S
C736        C737   1.423       .  A
C737        C738   1.431       .  A
C737        H744   1.071       .  S
C738        S740   1.806       .  S
S739        H742   1.396       .  S
S740        H741   1.407       .  S
C745        C746   1.410       .  A
C745        C750   1.442       .  A
C746        C747   1.429       .  A
C746        H755   1.082       .  S
C747        C748   1.447   1_655  A
C747        S751   1.806       .  S
C748        C749   1.401   1_455  A
C749        C750   1.424       .  A
C749        H756   1.082   1_655  S
C750        S752   1.809       .  S
S751        H754   1.407       .  S
S752        H753   1.406       .  S
C757        C758   1.414       .  A
C757        C762   1.436       .  A
C758        C759   1.403       .  A
C758        H767   1.074       .  S
C759        C760   1.432       .  A
C759        S763   1.810       .  S
C760        C761   1.417       .  A
C761        C762   1.433       .  A
C761        H768   1.080       .  S
C762        S764   1.797       .  S
S763        H766   1.407       .  S
S764        H765   1.407       .  S
C769        C770   1.411       .  A
C769        C774   1.429       .  A
C770        C771   1.402       .  A
C770        H779   1.071       .  S
C771        C772   1.420       .  A
C771        S775   1.787   1_545  S
C772        C773   1.422       .  A
C773        C774   1.404       .  A
C773        H780   1.081       .  S
C774        S776   1.812       .  S
S775        H778   1.397       .  S
S776        H777   1.404       .  S
C781        C782   1.425       .  A
C781        C786   1.444       .  A
C782        C783   1.432       .  A
C782        H791   1.075       .  S
C783        C784   1.428   1_565  A
C783        S787   1.805   1_565  S
C784        C785   1.402   1_545  A
C785        C786   1.399       .  A
C785        H792   1.077   1_565  S
C786        S788   1.807       .  S
S787        H790   1.407   1_545  S
S788        H789   1.407       .  S
C793        C794   1.416       .  A
C793        C798   1.422       .  A
C794        C795   1.416       .  A
C794        H803   1.074       .  S
C795        C796   1.440       .  A
C795        S799   1.807       .  S
C796        C797   1.406       .  A
C797        C798   1.384       .  A
C797        H804   1.053       .  S
C798        S800   1.802       .  S
S799        H802   1.406       .  S
S800        H801   1.405       .  S
C805        C806   1.421       .  A
C805        C810   1.443       .  A
C806        C807   1.411       .  A
C806        H815   1.067       .  S
C807        C808   1.423   1_655  A
C807        S811   1.809       .  S
C808        C809   1.420   1_455  A
C809        C810   1.424       .  A
C809        H816   1.077   1_655  S
C810        S812   1.814       .  S
S811        H814   1.407       .  S
S812        H813   1.392       .  S
C817        C818   1.428       .  A
C817        C822   1.434       .  A
C818        C819   1.429       .  A
C818        H827   1.078       .  S
C819        C820   1.421       .  A
C819        S823   1.805       .  S
C820        C821   1.412       .  A
C821        C822   1.393       .  A
C821        H828   1.076       .  S
C822        S824   1.818       .  S
S823        H826   1.406       .  S
S824        H825   1.405       .  S
C829        C830   1.405       .  A
C829        C834   1.391       .  A
C830        C831   1.416       .  A
C830        H839   1.077       .  S
C831        C832   1.438       .  A
C831        S835   1.802       .  S
C832        C833   1.437       .  A
C833        C834   1.399       .  A
C833        H840   1.079       .  S
C834        S836   1.793       .  S
S835        H838   1.408       .  S
S836        H837   1.406       .  S
C841        C842   1.424       .  A
C841        C846   1.435       .  A
C842        C843   1.404       .  A
C842        H851   1.077       .  S
C843        C844   1.404       .  A
C843        S847   1.804       .  S
C844        C845   1.396       .  A
C845        C846   1.407       .  A
C845        H852   1.081       .  S
C846        S848   1.803       .  S
S847        H850   1.406       .  S
S848        H849   1.407       .  S
C853        C858   1.410       .  A
C854        C855   1.404       .  A
C854        H863   1.084       .  S
C855        S859   1.790       .  S
C856        C857   1.404       .  A
C857        C858   1.405       .  A
C857        H864   1.083       .  S
C858        S860   1.799       .  S
S859        H862   1.408       .  S
S860        H861   1.408       .  S
C865        C866   1.402       .  A
C865        C870   1.409       .  A
C866        C867   1.420       .  A
C866        H875   1.080       .  S
C867        C868   1.439       .  A
C867        S871   1.808       .  S
C868        C869   1.412       .  A
C869        C870   1.386       .  A
C869        H876   1.077       .  S
C870        S872   1.802       .  S
S871        H874   1.407       .  S
S872        H873   1.399       .  S
C877        C878   1.406       .  A
C877        C882   1.412       .  A
C878        C879   1.421       .  A
C878        H887   1.081       .  S
C879        C880   1.435       .  A
C879        S883   1.798       .  S
C880        C881   1.410       .  A
C881        C882   1.389       .  A
C881        H888   1.069       .  S
C882        S884   1.805       .  S
S883        H886   1.407       .  S
S884        H885   1.408       .  S
C889        C890   1.422       .  A
C889        C894   1.436       .  A
C890        C891   1.400       .  A
C890        H899   1.076       .  S
C891        C892   1.404       .  A
C891        S895   1.810   1_455  S
C892        C893   1.404       .  A
C893        C894   1.414       .  A
C893        H900   1.082       .  S
C894        S896   1.807       .  S
S895        H898   1.407       .  S
S896        H897   1.406       .  S
C901        C902   1.402       .  A
C902        C903   1.404       .  A
C902        H911   1.082       .  S
C903        C904   1.411       .  A
C903        S907   1.797       .  S
C905        C906   1.406       .  A
C905        H912   1.083   1_554  S
C906        S908   1.805   1_554  S
S907        H910   1.404       .  S
S908        H909   1.407       .  S
C913        C918   1.396       .  A
C914        C915   1.394       .  A
C914        H923   1.084       .  S
C915        S919   1.809       .  S
C916        C917   1.410       .  A
C917        C918   1.396       .  A
C917        H924   1.083       .  S
C918        S920   1.799       .  S
S919        H922   1.399       .  S
S920        H921   1.407       .  S
C925        C926   1.398       .  A
C925        C930   1.403       .  A
C926        C927   1.412       .  A
C926        H935   1.082       .  S
C927        C928   1.450       .  A
C927        S931   1.815       .  S
C928        C929   1.430       .  A
C929        C930   1.401       .  A
C929        H936   1.059       .  S
C930        S932   1.805       .  S
S931        H934   1.407       .  S
S932        H933   1.404       .  S
C937        C938   1.407       .  A
C937        C942   1.405       .  A
C938        C939   1.420       .  A
C938        H947   1.083       .  S
C939        C940   1.436       .  A
C939        S943   1.803       .  S
C940        C941   1.428       .  A
C941        C942   1.397       .  A
C941        H948   1.083       .  S
C942        S944   1.804       .  S
S943        H946   1.407       .  S
S944        H945   1.405       .  S
C949        C950   1.428       .  A
C949        C954   1.445       .  A
C950        C951   1.388       .  A
C950        H959   1.067       .  S
C951        C952   1.390       .  A
C951        S955   1.804       .  S
C952        C953   1.414       .  A
C953        C954   1.437       .  A
C953        H960   1.082       .  S
C954        S956   1.802       .  S
S955        H958   1.409       .  S
S956        H957   1.405       .  S
C961        C962   1.399       .  A
C962        C963   1.398       .  A
C962        H971   1.083       .  S
C963        C964   1.412       .  A
C963        S967   1.809       .  S
C965        C966   1.400       .  A
C965        H972   1.082       .  S
C966        S968   1.804       .  S
S967        H970   1.406       .  S
S968        H969   1.407       .  S
C973        C974   1.401       .  A
C973        C978   1.396       .  A
C974        C975   1.411       .  A
C974        H983   1.076       .  S
C975        C976   1.429       .  A
C975        S979   1.811       .  S
C976        C977   1.423       .  A
C977        C978   1.389       .  A
C977        H984   1.076       .  S
C978        S980   1.804       .  S
S979        H982   1.407       .  S
S980        H981   1.405       .  S
C985        C986   1.391       .  A
C985        C990   1.411       .  A
C986        C987   1.402       .  A
C986        H995   1.083       .  S
C987        C988   1.438       .  A
C987        S991   1.810       .  S
C988        C989   1.413       .  A
C989        C990   1.403       .  A
C989        H996   1.078       .  S
C990        S992   1.799       .  S
S991        H994   1.405       .  S
S992        H993   1.405       .  S
C997        C998   1.417       .  A
C997       C1002   1.438       .  A
C998        C999   1.377       .  A
C998       H1007   1.067       .  S
C999       C1000   1.396       .  A
C999       S1003   1.808       .  S
C1000      C1001   1.405       .  A
C1001      C1002   1.420       .  A
C1001      H1008   1.083       .  S
C1002      S1004   1.803       .  S
S1003      H1006   1.408       .  S
S1004      H1005   1.407       .  S
C1009      C1014   1.411       .  A
C1010      C1011   1.404       .  A
C1010      H1019   1.083       .  S
C1011      C1012   1.411   1_556  A
C1011      S1015   1.798       .  S
C1013      C1014   1.402       .  A
C1013      H1020   1.084       .  S
C1014      S1016   1.795       .  S
S1015      H1018   1.408       .  S
S1016      H1017   1.407       .  S
C1021      C1026   1.408       .  A
C1022      C1023   1.403       .  A
C1022      H1031   1.082       .  S
C1023      C1024   1.412   1_556  A
C1023      S1027   1.795       .  S
C1025      C1026   1.406       .  A
C1025      H1032   1.083       .  S
C1026      S1028   1.801       .  S
S1027      H1030   1.405       .  S
S1028      H1029   1.408       .  S
C1033      C1034   1.436       .  A
C1033      C1038   1.440       .  A
C1034      C1035   1.384       .  A
C1034      H1043   1.071       .  S
C1035      C1036   1.387       .  A
C1035      S1039   1.812       .  S
C1036      C1037   1.401       .  A
C1037      C1038   1.413       .  A
C1037      H1044   1.081       .  S
C1038      S1040   1.815       .  S
S1039      H1042   1.408       .  S
S1040      H1041   1.396       .  S
