geometry optimzed in LAMMPS
_audit_creation_date              2020-11-30 
_audit_creation_method            'lammps2cif' 
_symmetry_space_group_name_H-M    'P1' 
_symmetry_Int_Tables_number       1 
_symmetry_cell_setting            triclinic 
loop_ 
_symmetry_equiv_pos_as_xyz 
  x,y,z 
_cell_length_a                    37.32261615 
_cell_length_b                    36.699911842990176 
_cell_length_c                    43.75725238966761 
_cell_angle_alpha                 90.28047318982185 
_cell_angle_beta                  89.88936003211745 
_cell_angle_gamma                 90.00361357699799 
loop_ 
_atom_site_label 
_atom_site_type_symbol 
_atom_site_fract_x 
_atom_site_fract_y 
_atom_site_fract_z 
_atom_site_charge 
C1          C  0.84996098  0.37224719  0.40136209     0.87700
C2          C  0.84427753  0.35025004  0.37179518    -0.52500
C3          C  0.86419142  0.36315699  0.34784669     0.10600
C4          C  0.88769395  0.39616869  0.35567321     0.21600
C5          C  0.89027768  0.37144513  0.40709393    -0.53200
C6          C  0.91016177  0.38384852  0.38315282     0.10700
C7          C  0.84165219  0.41163804  0.39289170    -0.52800
C8          C  0.86147578  0.42439389  0.36898664     0.11300
H9          H  0.82650747  0.32691256  0.36997360     0.15800
H10         H  0.90377520  0.40635895  0.33610456     0.01600
H11         H  0.90207493  0.36131967  0.42809205     0.16100
H12         H  0.82320238  0.42860340  0.40590931     0.15900
C13         C  0.12170124  0.36174396  0.41027787     0.87700
C14         C  0.13168084  0.40070766  0.40145295    -0.52500
C15         C  0.11430557  0.41301682  0.37609322     0.10600
C16         C  0.08876868  0.38501870  0.36187615     0.21600
C17         C  0.08092509  0.36209862  0.41354932    -0.53200
C18         C  0.06361473  0.37432973  0.38813904     0.10700
C19         C  0.12945619  0.33868411  0.38156998    -0.52800
C20         C  0.11201723  0.35125649  0.35620384     0.11300
H21         H  0.14957944  0.41766838  0.41496938     0.15800
H22         H  0.07487457  0.39509321  0.34113833     0.01600
H23         H  0.06703129  0.35356265  0.43414945     0.16100
H24         H  0.14699018  0.31507242  0.38126891     0.15900
C25         C  0.85648502  0.62951871  0.40666467     0.87700
C26         C  0.84786145  0.59019689  0.39794048    -0.52500
C27         C  0.86603456  0.57787964  0.37292134     0.10600
C28         C  0.89128887  0.60631656  0.35889139     0.21600
C29         C  0.89719435  0.63049381  0.41047306    -0.53200
C30         C  0.91592318  0.61867634  0.38532971     0.10700
C31         C  0.84872264  0.65178203  0.37776519    -0.52800
C32         C  0.86707642  0.63920974  0.35272578     0.11300
H33         H  0.82988575  0.57307777  0.41116928     0.15800
H34         H  0.90524241  0.59656840  0.33802105     0.01600
H35         H  0.90971214  0.63915817  0.43165145     0.16100
H36         H  0.83042609  0.67476821  0.37706987     0.15900
C37         C  0.13202894  0.61785050  0.40510243     0.87700
C38         C  0.14097825  0.63888510  0.37572899    -0.52500
C39         C  0.12133561  0.62714027  0.35111452     0.10600
C40         C  0.09506904  0.59609542  0.35814436     0.21600
C41         C  0.09160247  0.62193400  0.40933461    -0.53200
C42         C  0.07173980  0.61105107  0.38464360     0.10700
C43         C  0.13770676  0.57794789  0.39701675    -0.52800
C44         C  0.11855586  0.56625375  0.37242916     0.11300
H45         H  0.16046553  0.66080383  0.37453384     0.15800
H46         H  0.08017038  0.58685270  0.33764415     0.01600
H47         H  0.08006455  0.63205710  0.43050466     0.16100
H48         H  0.15451902  0.55998050  0.41050947     0.15900
C49         C  0.34945142  0.86105992  0.14937042     0.87700
C50         C  0.34187713  0.83820981  0.12076669    -0.52500
C51         C  0.36221692  0.84859919  0.09634567     0.10600
C52         C  0.38803558  0.88033710  0.10273539     0.21600
C53         C  0.38978552  0.85770590  0.15478716    -0.53200
C54         C  0.41043692  0.86734691  0.13023576     0.10700
C55         C  0.34358247  0.90047889  0.13981687    -0.52800
C56         C  0.36387676  0.91085060  0.11545384     0.11300
H57         H  0.32251314  0.81613433  0.11985622     0.15800
H58         H  0.40378526  0.88842948  0.08235160     0.01600
H59         H  0.40075256  0.84880551  0.17645216     0.16100
H60         H  0.32628955  0.91918912  0.15231092     0.15900
C61         C  0.35934546  0.11153319  0.15610371     0.87700
C62         C  0.35091238  0.07350011  0.14413628    -0.52500
C63         C  0.37059827  0.06340926  0.11931449     0.10600
C64         C  0.39712308  0.09279098  0.10859244     0.21600
C65         C  0.39970634  0.11151914  0.16194152    -0.53200
C66         C  0.41991929  0.10210672  0.13699946     0.10700
C67         C  0.35390695  0.13696886  0.12861575    -0.52800
C68         C  0.37397023  0.12684327  0.10367359     0.11300
H69         H  0.33210901  0.05527397  0.15534980     0.15800
H70         H  0.41249696  0.08488918  0.08789557     0.01600
H71         H  0.41098022  0.11795348  0.18416777     0.16100
H72         H  0.33624749  0.16047977  0.12885338     0.15900
C73         C  0.63546814  0.10584849  0.16097368     0.87700
C74         C  0.64419560  0.12752480  0.13211621    -0.52500
C75         C  0.62513893  0.11578802  0.10739360     0.10600
C76         C  0.59939010  0.08425288  0.11371269     0.21600
C77         C  0.59492868  0.10896057  0.16519966    -0.53200
C78         C  0.57551527  0.09800290  0.14025889     0.10700
C79         C  0.64214871  0.06611045  0.15252853    -0.52800
C80         C  0.62322182  0.05465638  0.12771670     0.11300
H81         H  0.66344970  0.14969161  0.13123891     0.15800
H82         H  0.58509751  0.07518622  0.09286351     0.01600
H83         H  0.58307926  0.11847625  0.18643478     0.16100
H84         H  0.65919938  0.04816671  0.16581534     0.15900
C85         C  0.62481819  0.84875978  0.15744650     0.87700
C86         C  0.63413979  0.88817928  0.15014777    -0.52500
C87         C  0.61683912  0.90156517  0.12530805     0.10600
C88         C  0.59157393  0.87411610  0.10993159     0.21600
C89         C  0.58393992  0.84818693  0.16053959    -0.53200
C90         C  0.56607354  0.86110378  0.13545891     0.10700
C91         C  0.63303635  0.82738677  0.12788676    -0.52800
C92         C  0.61538925  0.84112313  0.10301559     0.11300
H93         H  0.65191666  0.90464535  0.16422702     0.15800
H94         H  0.57834332  0.88486520  0.08919383     0.01600
H95         H  0.57067489  0.83879348  0.18113959     0.16100
H96         H  0.65084425  0.80402671  0.12671269     0.15900
In97       In  0.87136662  0.71070717  0.21174139     1.36900
C98         C  0.86782472  0.68050962  0.26652192     0.78800
O99         O  0.92125875  0.67735090  0.20686455    -0.59600
O100        O  0.92682786  0.73480138  0.20409441    -0.50500
C101        C  0.84351999  0.68656794  0.15869923     0.71500
O102        O  0.83770045  0.67095454  0.18382212    -0.45400
C103        C  0.83338526  0.76913496  0.22857598     0.76200
O104        O  0.85201697  0.66685222  0.24366507    -0.57300
O105        O  0.86300835  0.77217807  0.21484958    -0.47400
O106        O  0.88632886  0.70845214  0.26110943    -0.53700
C107        C  0.94215817  0.70409499  0.20393117     0.86400
O108        O  0.86301718  0.71446855  0.16081215    -0.55600
O109        O  0.82247131  0.73689354  0.23121218    -0.58900
In110      In  0.11357831  0.70325314  0.21168360     1.36900
C111        C  0.11755646  0.67046257  0.26562043     0.78800
O112        O  0.17054129  0.71860582  0.21892436    -0.59600
O113        O  0.13107768  0.75896714  0.22844296    -0.50500
C114        C  0.13358549  0.67200635  0.15878588     0.71500
O115        O  0.11715363  0.65517472  0.17958057    -0.45400
C116        C  0.04439589  0.71813189  0.20177798     0.76200
O117        O  0.13102160  0.65668220  0.24178542    -0.57300
O118        O  0.06853064  0.74198331  0.19837007    -0.47400
O119        O  0.10065867  0.69964103  0.26160276    -0.53700
C120        C  0.16374165  0.74988071  0.22937865     0.86400
O121        O  0.13930403  0.70524178  0.16463949    -0.55600
O122        O  0.05601402  0.68713755  0.20902472    -0.58900
In123      In  0.20812184  0.61317734  0.03371044     1.36900
C124        C  0.17844065  0.61793635  0.48818792     0.78800
O125        O  0.23447358  0.66175427  0.01389748    -0.59600
O126        O  0.26817381  0.61722811  0.02563749    -0.50500
C127        C  0.18678269  0.64405620  0.08675076     0.71500
O128        O  0.16565673  0.62760074  0.06903376    -0.45400
C129        C  0.20480186  0.54086189  0.04139555     0.76200
O130        O  0.16566875  0.64021855  0.00485151    -0.57300
O131        O  0.23395786  0.55815081  0.04391087    -0.47400
O132        O  0.20571625  0.59830406  0.49199612    -0.53700
C133        C  0.26559715  0.64842463  0.01357166     0.86400
O134        O  0.21885923  0.64399985  0.07781029    -0.55600
O135        O  0.17800636  0.56060043  0.03611761    -0.58900
In136      In  0.21329031  0.36555732  0.04001855     1.36900
C137        C  0.17249242  0.35147418  0.49166181     0.78800
O138        O  0.19297161  0.42326028  0.04044820    -0.59600
O139        O  0.24849532  0.41507733  0.04774831    -0.50500
C140        C  0.18989257  0.34576311  0.09571131     0.71500
O141        O  0.17303697  0.33851773  0.07145385    -0.45400
C142        C  0.26297039  0.31658610  0.02495634     0.76200
O143        O  0.16178096  0.35648021  0.01371445    -0.57300
O144        O  0.26830083  0.35036984  0.02244205    -0.47400
O145        O  0.20569465  0.35676103  0.49246107    -0.53700
C146        C  0.22321670  0.43764096  0.04502693     0.86400
O147        O  0.21863114  0.36315831  0.09153397    -0.55600
O148        O  0.23360909  0.30820848  0.03723547    -0.58900
In149      In  0.76664100  0.61559670  0.04037349     1.36900
C150        C  0.80211393  0.63387231  0.48646113     0.78800
O151        O  0.78819680  0.55808739  0.03950328    -0.59600
O152        O  0.73318277  0.56526893  0.04978091    -0.50500
C153        C  0.78989799  0.63691718  0.09563541     0.71500
O154        O  0.80757388  0.64154428  0.07136837    -0.45400
C155        C  0.71734264  0.66439979  0.02366583     0.76200
O156        O  0.81830536  0.62788957  0.01552878    -0.57300
O157        O  0.71244092  0.63059278  0.02043818    -0.47400
O158        O  0.78065438  0.60760550  0.48844049    -0.53700
C159        C  0.75864798  0.54313929  0.04567507     0.86400
O160        O  0.76023177  0.62099520  0.09180182    -0.55600
O161        O  0.74558190  0.67270537  0.03771157    -0.58900
In162      In  0.77214692  0.36691087  0.03929659     1.36900
C163        C  0.79947171  0.36424642  0.48267157     0.78800
O164        O  0.74696503  0.31336569  0.02935310    -0.59600
O165        O  0.71215885  0.35883998  0.03275143    -0.50500
C166        C  0.79542790  0.34376678  0.09391320     0.71500
O167        O  0.81068948  0.33543886  0.06912565    -0.45400
C168        C  0.77747481  0.43964401  0.04303539     0.76200
O169        O  0.81733790  0.34667373  0.00938020    -0.57300
O170        O  0.74774709  0.42328401  0.04465834    -0.47400
O171        O  0.77026307  0.38099536  0.48585768    -0.53700
C172        C  0.71563169  0.32545794  0.02630036     0.86400
O173        O  0.76817106  0.36368296  0.09079772    -0.55600
O174        O  0.80414740  0.41883588  0.04008065    -0.58900
In175      In  0.87481401  0.27653626  0.21263405     1.36900
C176        C  0.86996058  0.31442486  0.26415369     0.78800
O177        O  0.82628946  0.25052692  0.23383608    -0.59600
O178        O  0.86804375  0.21546577  0.21947504    -0.50500
C179        C  0.84720285  0.29498913  0.15809779     0.71500
O180        O  0.84145858  0.31295046  0.18221061    -0.45400
C181        C  0.94580897  0.28254242  0.20535806     0.76200
O182        O  0.85452340  0.32448769  0.23997820    -0.57300
O183        O  0.93040086  0.25211172  0.20820138    -0.47400
O184        O  0.88853742  0.28591694  0.26172402    -0.53700
C185        C  0.83816395  0.21845848  0.23276400     0.86400
O186        O  0.86651240  0.26722616  0.16188867    -0.55600
O187        O  0.92487059  0.30945777  0.20518117    -0.58900
In188      In  0.11730730  0.27417291  0.21632625     1.36900
C189        C  0.11514399  0.30654184  0.27068450     0.78800
O190        O  0.06134929  0.29567753  0.21075093    -0.59600
O191        O  0.06934035  0.23850326  0.20684130    -0.50500
C192        C  0.14031104  0.29704802  0.16155749     0.71500
O193        O  0.14466956  0.31554720  0.18571408    -0.45400
C194        C  0.16750363  0.22699445  0.23288586     0.76200
O195        O  0.12254054  0.32394527  0.24662426    -0.57300
O196        O  0.13499621  0.21792085  0.23033182    -0.47400
O197        O  0.10784019  0.27342589  0.26676574    -0.53700
C198        C  0.04734486  0.26467147  0.20684325     0.86400
O199        O  0.12418681  0.26722241  0.16548924    -0.55600
O200        O  0.17444809  0.25911885  0.22487123    -0.58900
In201      In  0.70905827  0.86403006  0.29030221     1.36900
C202        C  0.67525771  0.84671826  0.23854861     0.80400
O203        O  0.68084419  0.91784714  0.28794215    -0.59600
O204        O  0.73594973  0.91889642  0.29947994    -0.50500
C205        C  0.68307009  0.84585077  0.34548230     0.71500
O206        O  0.66585243  0.84097883  0.32096882    -0.45400
C207        C  0.76505277  0.82149191  0.27694727     0.76200
O208        O  0.66513589  0.83479960  0.26411795    -0.57300
O209        O  0.76379320  0.85433119  0.26876152    -0.47400
O210        O  0.70161104  0.86801498  0.23957957    -0.53700
C211        C  0.70778656  0.93701500  0.29446789     0.86400
O212        O  0.71356293  0.86019971  0.34181512    -0.55600
O213        O  0.73989090  0.81194395  0.29428899    -0.58900
In214      In  0.72109600  0.11229321  0.29375338     1.36900
C215        C  0.68764267  0.11611337  0.24116591     0.78800
O216        O  0.73972189  0.17022851  0.29153857    -0.59600
O217        O  0.77589653  0.12964627  0.27609629    -0.50500
C218        C  0.69214002  0.13507367  0.34623161     0.71500
O219        O  0.67753923  0.14034299  0.32065782    -0.45400
C220        C  0.72885444  0.03999522  0.30024970     0.76200
O221        O  0.67119106  0.11922843  0.26623292    -0.57300
O222        O  0.75389406  0.06215576  0.30611977    -0.47400
O223        O  0.72069577  0.11001453  0.24299342    -0.53700
C224        C  0.76911011  0.16323851  0.27869820     0.86400
O225        O  0.72145803  0.11791319  0.34500830    -0.55600
O226        O  0.70007841  0.05495785  0.29202144    -0.58900
In227      In  0.61158315  0.21011295  0.46023302     1.36900
C228        C  0.62576438  0.16029438  0.02298751     0.78800
O229        O  0.66821929  0.22881017  0.46501036    -0.59600
O230        O  0.62731756  0.26553622  0.47883165    -0.50500
C231        C  0.63600562  0.18607372  0.40645688     0.71500
O232        O  0.64046982  0.16903485  0.43111942    -0.45400
C233        C  0.54137609  0.21958021  0.45174661     0.76200
O234        O  0.61752908  0.15783476  0.48657985    -0.57300
O235        O  0.56347131  0.24557565  0.45044065    -0.47400
O236        O  0.61370631  0.19197635  0.01967316    -0.53700
C237        C  0.66045108  0.25880905  0.47735638     0.86400
O238        O  0.61845477  0.21533751  0.40912600    -0.55600
O239        O  0.55534045  0.18886076  0.45663189    -0.58900
In240      In  0.36971616  0.20556485  0.46097199     1.36900
C241        C  0.38039996  0.17789485  0.02092480     0.78800
O242        O  0.41983689  0.17330919  0.45268219    -0.59600
O243        O  0.42437277  0.23095182  0.45384689    -0.50500
C244        C  0.34035555  0.18563717  0.40752807     0.71500
O245        O  0.33693500  0.16720099  0.43158463    -0.45400
C246        C  0.33144596  0.26185903  0.48138928     0.76200
O247        O  0.35191595  0.15895455  0.49065972    -0.57300
O248        O  0.36107369  0.26630924  0.46795340    -0.47400
O249        O  0.39306022  0.20949085  0.01795515    -0.53700
C250        C  0.44020096  0.20064859  0.45141835     0.86400
O251        O  0.35809773  0.21457393  0.41091173    -0.55600
O252        O  0.32076469  0.22937619  0.48221755    -0.58900
In253      In  0.60230555  0.77660868  0.46333233     1.36900
C254        C  0.61163508  0.80257832  0.01571875     0.78800
O255        O  0.55181681  0.80973095  0.46185306    -0.59600
O256        O  0.54722717  0.75283224  0.45396709    -0.50500
C257        C  0.62612921  0.80228985  0.40979822     0.71500
O258        O  0.63718761  0.81451005  0.43520904    -0.45400
C259        C  0.63940562  0.71523901  0.47342611     0.76200
O260        O  0.63001539  0.81990986  0.49207466    -0.57300
O261        O  0.61105074  0.72262573  0.48771996    -0.47400
O262        O  0.59413267  0.77396071  0.01020821    -0.53700
C263        C  0.53134563  0.78308822  0.45678975     0.86400
O264        O  0.60269581  0.77755386  0.41194020    -0.55600
O265        O  0.64677088  0.73722842  0.45245612    -0.58900
In266      In  0.36001823  0.77198367  0.46887039     1.36900
C267        C  0.36214673  0.80227949  0.01196219     0.78800
O268        O  0.30528615  0.74754283  0.47020774    -0.59600
O269        O  0.34781303  0.71563137  0.48767255    -0.50500
C270        C  0.33047399  0.80248982  0.41973819     0.71500
O271        O  0.32522327  0.81398555  0.44655255    -0.45400
C272        C  0.42992057  0.76447303  0.45658429     0.76200
O273        O  0.35622902  0.82292068  0.49753212    -0.57300
O274        O  0.40767559  0.73900548  0.45245517    -0.47400
O275        O  0.37499660  0.77113451  0.00702671    -0.53700
C276        C  0.31448131  0.71898366  0.48384166     0.86400
O277        O  0.35134573  0.77542115  0.41784015    -0.55600
O278        O  0.41619515  0.79386135  0.46596118    -0.58900
In279      In  0.27615434  0.85918130  0.28805063     1.36900
C280        C  0.30160259  0.85397755  0.23192976     0.78800
O281        O  0.24897177  0.80847639  0.27270413    -0.59600
O282        O  0.21560721  0.85277122  0.28540173    -0.50500
C283        C  0.30473480  0.82820310  0.33757280     0.71500
O284        O  0.31767039  0.82481464  0.31116973    -0.45400
C285        C  0.28420625  0.93099811  0.29597148     0.76200
O286        O  0.31746348  0.84015390  0.25448035    -0.57300
O287        O  0.25423358  0.91531915  0.29866866    -0.47400
O288        O  0.27347326  0.87148656  0.23809859    -0.53700
C289        C  0.21772824  0.82124189  0.27385559     0.86400
O290        O  0.27671426  0.84744694  0.33892788    -0.55600
O291        O  0.31000434  0.90980630  0.29053132    -0.58900
In292      In  0.27049980  0.10611308  0.28960711     1.36900
C293        C  0.30596045  0.11172314  0.23717914     0.78800
O294        O  0.29516750  0.04985907  0.29322460    -0.59600
O295        O  0.23883568  0.05504308  0.29788783    -0.50500
C296        C  0.29129466  0.13254256  0.34412081     0.71500
O297        O  0.30758768  0.13945736  0.31959637    -0.45400
C298        C  0.21670338  0.14875012  0.27215326     0.76200
O299        O  0.32062804  0.11805705  0.26261513    -0.57300
O300        O  0.21210566  0.11585318  0.27920364    -0.47400
O301        O  0.27424350  0.10022984  0.23866146    -0.53700
C302        C  0.26549190  0.03401658  0.29729065     0.86400
O303        O  0.26436766  0.11228312  0.34082173    -0.55600
O304        O  0.24810089  0.16032766  0.27618987    -0.58900
C305        C  0.28913819  0.97096814  0.29762406    -0.15200
C306        C  0.26137970  0.99408291  0.30019557    -0.30400
H307        H  0.31605754  0.98163881  0.29460905     0.13800
H308        H  0.23441642  0.98337257  0.30280048     0.14400
C309        C  0.31292375  0.81952977  0.39312972    -0.15200
C310        C  0.32161737  0.81071042  0.36426491    -0.30400
H311        H  0.29283029  0.84035336  0.39745266     0.13800
H312        H  0.34264427  0.79085457  0.35996703     0.14400
C313        C  0.49197592  0.78765266  0.45579567    -0.15200
C314        C  0.46901510  0.75971531  0.45208343    -0.30400
H315        H  0.48154598  0.81479810  0.46030427     0.13800
H316        H  0.47917017  0.73250613  0.44745110     0.14400
C317        C  0.32608757  0.17400828  0.37748898    -0.15200
C318        C  0.30300055  0.14609471  0.37440042    -0.30400
H319        H  0.33536757  0.18841382  0.35733293     0.13800
H320        H  0.29247177  0.13266953  0.39459037     0.14400
C321        C  0.50222009  0.22496903  0.44897127    -0.15200
C322        C  0.47947281  0.19655300  0.44890668    -0.30400
H323        H  0.49190620  0.25264023  0.44864593     0.13800
H324        H  0.49006077  0.16897280  0.44901608     0.14400
C325        C  0.67647955  0.14774797  0.37543533    -0.15200
C326        C  0.65042403  0.17306536  0.37686214    -0.30400
H327        H  0.68764509  0.13685786  0.39640959     0.13800
H328        H  0.64052240  0.18550295  0.35603810     0.14400
C329        C  0.63933733  0.81505081  0.37961414    -0.15200
C330        C  0.66910378  0.83544493  0.37610471    -0.30400
H331        H  0.62491149  0.80581250  0.35947267     0.13800
H332        H  0.68442155  0.84355328  0.39609711     0.14400
C333        C  0.70544477  0.97733771  0.29532569    -0.15200
C334        C  0.73296100  0.99974918  0.30209738    -0.30400
H335        H  0.67967997  0.98907002  0.28935090     0.13800
H336        H  0.75888128  0.98850948  0.30818172     0.14400
C337        C  0.19545885  0.20306601  0.24534903    -0.15200
C338        C  0.18796254  0.17138552  0.25917965    -0.30400
H339        H  0.22296916  0.21268923  0.24427937     0.13800
H340        H  0.16057846  0.16142975  0.26015784     0.14400
C341        C  0.81889460  0.18722996  0.24651988    -0.15200
C342        C  0.79186580  0.19273060  0.26643990    -0.30400
H343        H  0.82702348  0.15972139  0.24042848     0.13800
H344        H  0.78421514  0.22044652  0.27239360     0.14400
C345        C  0.98513484  0.28722274  0.20373953    -0.15200
C346        C  0.00821308  0.25907166  0.20377270    -0.30400
H347        H  0.99539332  0.31492821  0.20412528     0.13800
H348        H  0.99813719  0.23130994  0.20318708     0.14400
C349        C  0.68852827  0.28253892  0.49011225    -0.15200
C350        C  0.68628170  0.30243312  0.01433353    -0.30400
H351        H  0.72238227  0.26297687  0.99784192     0.13800
H352        H  0.65870448  0.31164377  0.01609206     0.14400
C353        C  0.83327344  0.30568985  0.12772232    -0.15200
C354        C  0.80842384  0.33195727  0.12428550    -0.30400
H355        H  0.84370163  0.29154804  0.10773014     0.13800
H356        H  0.79700642  0.34510546  0.14435919     0.14400
C357        C  0.69371901  0.69271614  0.01086403    -0.15200
C358        C  0.66398410  0.68532956  0.48137008    -0.30400
H359        H  0.64746807  0.68000567  0.52736696     0.13800
H360        H  0.65883604  0.65783440  0.98634450     0.14400
C361        C  0.75385907  0.50302293  0.04733506    -0.15200
C362        C  0.78154010  0.47983138  0.04375709    -0.30400
H363        H  0.72700704  0.49241603  0.05084159     0.13800
H364        H  0.80835777  0.49066167  0.04049435     0.14400
C365        C  0.28784072  0.28851343  0.01354451    -0.15200
C366        C  0.31089753  0.29180442  0.49562438    -0.30400
H367        H  0.28199270  0.26044185  0.01957159     0.13800
H368        H  0.32168044  0.32388380  0.98873080     0.14400
C369        C  0.17730048  0.33504161  0.12661457    -0.15200
C370        C  0.15253860  0.30884540  0.13085668    -0.30400
H371        H  0.18965925  0.34803001  0.14631158     0.13800
H372        H  0.14174161  0.29448747  0.11114735     0.14400
C373        C  0.28734196  0.69353793  0.49560226    -0.15200
C374        C  0.29606229  0.66815467  0.99964548    -0.30400
H375        H  0.26216889  0.70476629  0.97674842     0.13800
H376        H  0.32170774  0.65857240  0.52039652     0.14400
C377        C  0.20111172  0.50080953  0.04338830    -0.15200
C378        C  0.22878113  0.47764898  0.04637429    -0.30400
H379        H  0.17420696  0.48989787  0.04088201     0.13800
H380        H  0.25586400  0.48809301  0.04874846     0.14400
C381        C  0.19243664  0.77255823  0.24241937    -0.15200
C382        C  0.18678240  0.80130103  0.26101872    -0.30400
H383        H  0.21969340  0.76365961  0.23778853     0.13800
H384        H  0.15977444  0.81069836  0.26589532     0.14400
C385        C  0.14478298  0.65382722  0.13000091    -0.15200
C386        C  0.17517860  0.66272844  0.11523478    -0.30400
H387        H  0.12878951  0.63107395  0.12180079     0.13800
H388        H  0.19266664  0.68348318  0.12483410     0.14400
C389        C  0.79161085  0.79481309  0.26583208    -0.15200
C390        C  0.81312962  0.80021804  0.24153141    -0.30400
H391        H  0.79056044  0.76794681  0.27615689     0.13800
H392        H  0.81532908  0.82689857  0.23107568     0.14400
C393        C  0.82964537  0.67349256  0.12888426    -0.15200
C394        C  0.80282269  0.64914725  0.12606768    -0.30400
H395        H  0.84153557  0.68508893  0.10843641     0.13800
H396        H  0.78951840  0.63878597  0.14634524     0.14400
C397        C  0.98135972  0.69870961  0.20185729    -0.15200
C398        C  0.00548943  0.72579153  0.19890138    -0.30400
H399        H  0.99078678  0.67087695  0.20440515     0.13800
H400        H  0.99662832  0.75374776  0.19602979     0.14400
C401        C  0.64321651  0.83746163  0.18552110    -0.12000
C402        C  0.65768307  0.83802961  0.21019161    -0.13600
C403        C  0.61768773  0.82642578  0.07248095    -0.12000
C404        C  0.61588944  0.81616430  0.04631072    -0.13600
C405        C  0.67004714  0.11839600  0.21245522    -0.12000
C406        C  0.65516018  0.11622713  0.18828734    -0.13600
C407        C  0.62822256  0.13145162  0.07763986    -0.12000
C408        C  0.62797961  0.14387499  0.05234721    -0.13600
C409        C  0.65453712  0.99571249  0.11893909    -0.12100
C410        C  0.62282944  0.01619179  0.11831660     0.10000
C411        C  0.58996740  0.99854915  0.11394051    -0.12100
C412        C  0.58837895  0.96067739  0.11328271    -0.12100
C413        C  0.61963634  0.94016306  0.11699910     0.10000
C414        C  0.65294639  0.95782566  0.11829767    -0.12100
H415        H  0.68023292  0.00893627  0.12199653     0.14000
H416        H  0.56522526  0.01368533  0.11404262     0.14000
H417        H  0.56242925  0.94767842  0.11290832     0.14000
H418        H  0.67743140  0.94232967  0.12091286     0.14000
C419        C  0.32376784  0.11741659  0.20845346    -0.12000
C420        C  0.33877955  0.11906787  0.18404679    -0.13600
C421        C  0.37711003  0.16066884  0.05030877    -0.12000
C422        C  0.37452707  0.14627571  0.07500427    -0.13600
C423        C  0.47891792  0.12321335  0.15842576    -0.12100
C424        C  0.45977949  0.10160214  0.13745501     0.10000
C425        C  0.47910705  0.07988019  0.11674751    -0.12100
C426        C  0.51640284  0.07881334  0.11758226    -0.12100
C427        C  0.53560841  0.09958773  0.13907194     0.10000
C428        C  0.51624835  0.12227871  0.15918932    -0.12100
H429        H  0.46525373  0.14157485  0.17394862     0.14000
H430        H  0.46578071  0.06319764  0.09991248     0.14000
H431        H  0.52966165  0.06128014  0.10133326     0.14000
H432        H  0.52966700  0.14005444  0.17525755     0.14000
C433        C  0.32871821  0.85203922  0.17661101    -0.12000
C434        C  0.31508064  0.85083020  0.20147443    -0.13600
C435        C  0.36024251  0.83119826  0.06699350    -0.12000
C436        C  0.36041917  0.81773720  0.04192192    -0.13600
C437        C  0.46772452  0.84000026  0.14981369    -0.12100
C438        C  0.45031205  0.86470186  0.13038505     0.10000
C439        C  0.47137683  0.88664782  0.11123655    -0.12100
C440        C  0.50873283  0.88539884  0.11269106    -0.12100
C441        C  0.52616926  0.86184743  0.13311216     0.10000
C442        C  0.50502651  0.83853598  0.15111461    -0.12100
H443        H  0.45264536  0.82127541  0.16386797     0.14000
H444        H  0.45935885  0.90522985  0.09529011     0.14000
H445        H  0.52352815  0.90340829  0.09785769     0.14000
H446        H  0.51709965  0.81865877  0.16609628     0.14000
C447        C  0.39899160  0.96706767  0.10571273    -0.12100
C448        C  0.36574141  0.94937940  0.10626181     0.10000
C449        C  0.33424811  0.97008171  0.10436169    -0.12100
C450        C  0.33598508  0.00801980  0.10505827    -0.12100
C451        C  0.36922234  0.02564044  0.10782202     0.10000
C452        C  0.40073565  0.00502166  0.10648563    -0.12100
H453        H  0.42345598  0.95183452  0.10808992     0.14000
H454        H  0.30828297  0.95690887  0.10472701     0.14000
H455        H  0.31130780  0.02351003  0.10602304     0.14000
H456        H  0.42653520  0.01780638  0.10945365     0.14000
C457        C  0.16453102  0.62556176  0.45831009    -0.12000
C458        C  0.15172424  0.62707430  0.43305647    -0.13600
C459        C  0.12337586  0.64281950  0.32100207    -0.12000
C460        C  0.12157287  0.65477263  0.29541895    -0.13600
C461        C  0.86424823  0.65461756  0.32260552    -0.12000
C462        C  0.86483328  0.66589986  0.29678125    -0.13600
C463        C  0.83733557  0.64018997  0.43464617    -0.12000
C464        C  0.82193156  0.64063918  0.45890825    -0.13600
C465        C  0.97636231  0.64010514  0.40361629    -0.12100
C466        C  0.95591204  0.61785696  0.38406290     0.10000
C467        C  0.97412175  0.59490452  0.36343237    -0.12100
C468        C  0.01148724  0.59287451  0.36341277    -0.12100
C469        C  0.03185351  0.61405966  0.38378097     0.10000
C470        C  0.01367887  0.63833526  0.40340640    -0.12100
H471        H  0.96378021  0.65952899  0.41887392     0.14000
H472        H  0.95990891  0.57776913  0.34750663     0.14000
H473        H  0.02398447  0.57400078  0.34772068     0.14000
H474        H  0.02805801  0.65656955  0.41847836     0.14000
C475        C  0.13957563  0.35068485  0.43855580    -0.12000
C476        C  0.15373791  0.34844665  0.46320294    -0.13600
C477        C  0.11534795  0.32270005  0.30064196    -0.12000
C478        C  0.11487152  0.33495226  0.32626634    -0.13600
C479        C  0.14951588  0.46955055  0.36754258    -0.12100
C480        C  0.11660032  0.45127950  0.36630937     0.10000
C481        C  0.08521378  0.47096798  0.36011150    -0.12100
C482        C  0.08624589  0.50899197  0.35878686    -0.12100
C483        C  0.11866365  0.52743672  0.36353568     0.10000
C484        C  0.15057190  0.50736804  0.36593145    -0.12100
H485        H  0.17412527  0.45473142  0.37166414     0.14000
H486        H  0.05949755  0.45734036  0.35914751     0.14000
H487        H  0.06133943  0.52383821  0.35708434     0.14000
H488        H  0.17603089  0.52108102  0.36895513     0.14000
C489        C  0.86620867  0.33327376  0.29276666    -0.12000
C490        C  0.86419391  0.34698712  0.31779050    -0.13600
C491        C  0.82980798  0.36093351  0.42844881    -0.12000
C492        C  0.81573964  0.35945086  0.45321542    -0.13600
C493        C  0.89414746  0.48156299  0.35700198    -0.12100
C494        C  0.86147359  0.46331603  0.36089780     0.10000
C495        C  0.82955216  0.48347265  0.36241957    -0.12100
C496        C  0.83071314  0.52138665  0.36350359    -0.12100
C497        C  0.86379494  0.53953174  0.36300753     0.10000
C498        C  0.89527101  0.51952301  0.35809754    -0.12100
H499        H  0.91914157  0.46660492  0.35605594     0.14000
H500        H  0.80396784  0.46986388  0.36490464     0.14000
H501        H  0.80602092  0.53642106  0.36682208     0.14000
H502        H  0.92103402  0.53280832  0.35809262     0.14000
C503        C  0.96901134  0.37225710  0.35800985    -0.12100
C504        C  0.94959314  0.38398451  0.38368060     0.10000
C505        C  0.96789017  0.39380049  0.41047044    -0.12100
C506        C  0.00504385  0.39091258  0.41186178    -0.12100
C507        C  0.02441875  0.37818716  0.38646880     0.10000
C508        C  0.00623809  0.36932925  0.35940980    -0.12100
H509        H  0.95533280  0.36417340  0.33725131     0.14000
H510        H  0.95339759  0.40345095  0.43039476     0.14000
H511        H  0.01863247  0.39868467  0.43274924     0.14000
H512        H  0.02069386  0.35925299  0.33962285     0.14000
C513        C  0.85098834  0.36261906  0.90274363     0.87700
C514        C  0.84496419  0.34030293  0.87339959    -0.52500
C515        C  0.86393163  0.35353508  0.84902460     0.10600
C516        C  0.88693724  0.38709097  0.85625102     0.21600
C517        C  0.89153202  0.36273348  0.90764507    -0.53200
C518        C  0.91062927  0.37565994  0.88332336     0.10700
C519        C  0.84162432  0.40177683  0.89423872    -0.52800
C520        C  0.86054349  0.41479226  0.86992331     0.11300
H521        H  0.82733842  0.31681921  0.87193296     0.15800
H522        H  0.90184621  0.39765614  0.83619119     0.01600
H523        H  0.90389689  0.35307945  0.92854269     0.16100
H524        H  0.82326122  0.41847211  0.90758743     0.15900
C525        C  0.12474752  0.36516095  0.90649704     0.87700
C526        C  0.13405758  0.40379731  0.89641319    -0.52500
C527        C  0.11575277  0.41503775  0.87124717     0.10600
C528        C  0.08990682  0.38636476  0.85835985     0.21600
C529        C  0.08404414  0.36515221  0.91067969    -0.53200
C530        C  0.06550888  0.37635710  0.88545972     0.10700
C531        C  0.13164933  0.34103320  0.87822477    -0.52800
C532        C  0.11311897  0.35241456  0.85298281     0.11300
H533        H  0.15214202  0.42146728  0.90909022     0.15800
H534        H  0.07559401  0.39579452  0.83765071     0.01600
H535        H  0.07122734  0.35653291  0.93173196     0.16100
H536        H  0.14901199  0.31729259  0.87822132     0.15900
C537        C  0.85655242  0.61892898  0.90806233     0.87700
C538        C  0.84864147  0.57948960  0.89952067    -0.52500
C539        C  0.86509491  0.56805699  0.87340986     0.10600
C540        C  0.88832817  0.59743759  0.85819809     0.21600
C541        C  0.89740213  0.62142056  0.90956522    -0.53200
C542        C  0.91439885  0.61059765  0.88325559     0.10700
C543        C  0.84582057  0.64122110  0.87986064    -0.52800
C544        C  0.86265666  0.62963285  0.85372790     0.11300
H545        H  0.83217067  0.56168135  0.91351582     0.15800
H546        H  0.90129523  0.58835812  0.83662831     0.01600
H547        H  0.91143823  0.63075648  0.92985400     0.16100
H548        H  0.82699232  0.66377325  0.88046499     0.15900
C549        C  0.12901675  0.62078525  0.89778569     0.87700
C550        C  0.13798121  0.64190225  0.86852540    -0.52500
C551        C  0.11930160  0.62956160  0.84359067     0.10600
C552        C  0.09358174  0.59775039  0.85035147     0.21600
C553        C  0.08848669  0.62372784  0.90139805    -0.53200
C554        C  0.06946569  0.61218838  0.87649317     0.10700
C555        C  0.13601746  0.58095930  0.88995112    -0.52800
C556        C  0.11749150  0.56855923  0.86522871     0.11300
H557        H  0.15680553  0.66443787  0.86763349     0.15800
H558        H  0.07894302  0.58797594  0.82984916     0.01600
H559        H  0.07611718  0.63356906  0.92234340     0.16100
H560        H  0.15289075  0.56345691  0.90381230     0.15900
C561        C  0.35668432  0.86310539  0.66045919     0.87700
C562        C  0.34592714  0.84146162  0.63187609    -0.52500
C563        C  0.36334879  0.85308662  0.60621420     0.10600
C564        C  0.38964029  0.88462306  0.61145244     0.21600
C565        C  0.39735962  0.85978183  0.66245751    -0.53200
C566        C  0.41506200  0.87059156  0.63660439     0.10700
C567        C  0.34962119  0.90287565  0.65259955    -0.52800
C568        C  0.36679053  0.91433478  0.62690838     0.11300
H569        H  0.32670779  0.81923655  0.63189094     0.15800
H570        H  0.40300214  0.89365248  0.59013271     0.01600
H571        H  0.41071634  0.85016005  0.68289600     0.16100
H572        H  0.33329154  0.92081701  0.66673504     0.15900
C573        C  0.35586199  0.12202336  0.65429406     0.87700
C574        C  0.34825193  0.08190574  0.64780388    -0.52500
C575        C  0.36613294  0.06828828  0.62309024     0.10600
C576        C  0.39005578  0.09648554  0.60702440     0.21600
C577        C  0.39649474  0.12461804  0.65712403    -0.53200
C578        C  0.41478210  0.11180787  0.63221322     0.10700
C579        C  0.34665124  0.14196361  0.62448524    -0.52800
C580        C  0.36478930  0.12821341  0.59971198     0.11300
H581        H  0.33130776  0.06525563  0.66236764     0.15800
H582        H  0.40403064  0.08573350  0.58649007     0.01600
H583        H  0.40944245  0.13546636  0.67741761     0.16100
H584        H  0.32823078  0.16479785  0.62315039     0.15900
C585        C  0.62944432  0.12343756  0.65055630     0.87700
C586        C  0.63815009  0.14222800  0.62021434    -0.52500
C587        C  0.61916217  0.12804127  0.59625736     0.10600
C588        C  0.59363347  0.09699554  0.60472465     0.21600
C589        C  0.58889841  0.12679031  0.65431402    -0.53200
C590        C  0.56975693  0.11329840  0.63013171     0.10700
C591        C  0.63624589  0.08295462  0.64484976    -0.52800
C592        C  0.61746232  0.06894478  0.62083356     0.11300
H593        H  0.65676502  0.16480855  0.61796909     0.15800
H594        H  0.57913776  0.08589730  0.58464622     0.01600
H595        H  0.57670499  0.13833348  0.67471141     0.16100
H596        H  0.65350879  0.06649570  0.65923588     0.15900
C597        C  0.62969394  0.86372729  0.65602240     0.87700
C598        C  0.63585999  0.90357487  0.64804597    -0.52500
C599        C  0.61766057  0.91490190  0.62289440     0.10600
C600        C  0.59469562  0.88496078  0.60795687     0.21600
C601        C  0.58912353  0.85984856  0.65908292    -0.53200
C602        C  0.57035507  0.87052509  0.63380745     0.10700
C603        C  0.63971961  0.84230470  0.62692224    -0.52800
C604        C  0.62121552  0.85377774  0.60170103     0.11300
H605        H  0.65236181  0.92171615  0.66180162     0.15800
H606        H  0.58042953  0.89399434  0.58711485     0.01600
H607        H  0.57659064  0.85012905  0.67990879     0.16100
H608        H  0.65919363  0.82033134  0.62632493     0.15900
In609      In  0.86558548  0.70315080  0.71344830     1.36900
C610        C  0.86058709  0.67337118  0.76854074     0.78800
O611        O  0.91754128  0.67308882  0.70722771    -0.59600
O612        O  0.91910037  0.73062508  0.70424477    -0.50500
C613        C  0.83574424  0.67309102  0.66311764     0.71500
O614        O  0.84579407  0.65509534  0.68591221    -0.45400
C615        C  0.83063667  0.76320252  0.73078189     0.76200
O616        O  0.83946966  0.66504408  0.74713314    -0.57300
O617        O  0.85811440  0.76471634  0.71392124    -0.47400
O618        O  0.88454011  0.69606940  0.76164949    -0.53700
C619        C  0.93652285  0.70114437  0.70396372     0.86400
O620        O  0.84065390  0.70696791  0.66582241    -0.55600
O621        O  0.82011843  0.73140163  0.73658983    -0.58900
In622      In  0.10767849  0.71826453  0.70987265     1.36900
C623        C  0.11672748  0.67862670  0.76015816     0.78800
O624        O  0.14325068  0.76625608  0.69814578    -0.59600
O625        O  0.12169097  0.76395450  0.74269541    -0.50500
C626        C  0.13190486  0.68636579  0.65825566     0.71500
O627        O  0.14312736  0.67749774  0.68435698    -0.45400
C628        C  0.03693325  0.72473822  0.70210096     0.76200
O629        O  0.14254320  0.68683666  0.74286905    -0.57300
O630        O  0.05758177  0.75200478  0.70294885    -0.47400
O631        O  0.08650542  0.68908050  0.75106449    -0.53700
C632        C  0.14218830  0.78018700  0.72446936     0.86400
O633        O  0.10871993  0.71123195  0.65867957    -0.55600
O634        O  0.05264881  0.69442790  0.70434072    -0.58900
In635      In  0.20682675  0.60608682  0.54284967     1.36900
C636        C  0.17573840  0.62437635  0.98065210     0.78800
O637        O  0.23313681  0.65795063  0.52963832    -0.59600
O638        O  0.26689095  0.61207102  0.53623201    -0.50500
C639        C  0.18522137  0.63306327  0.59697220     0.71500
O640        O  0.16602239  0.63358077  0.57330034    -0.45400
C641        C  0.19959136  0.53390685  0.54839276     0.76200
O642        O  0.16428663  0.62999745  0.51241885    -0.57300
O643        O  0.22976359  0.54944465  0.54865386    -0.47400
O644        O  0.20079784  0.60182690  0.98392299    -0.53700
C645        C  0.26421854  0.64477113  0.52761837     0.86400
O646        O  0.21549687  0.61846933  0.59310599    -0.55600
O647        O  0.17335512  0.55527649  0.54604664    -0.58900
In648      In  0.20896484  0.35874480  0.54340799     1.36900
C649        C  0.17687440  0.35885039  0.98796657     0.78800
O650        O  0.18730651  0.41602950  0.54417137    -0.59600
O651        O  0.24277817  0.40857179  0.55238990    -0.50500
C652        C  0.18601742  0.33700170  0.59828241     0.71500
O653        O  0.16965442  0.32943526  0.57383010    -0.45400
C654        C  0.26034506  0.31183713  0.52841167     0.76200
O655        O  0.15724377  0.35032394  0.51740274    -0.57300
O656        O  0.26340506  0.34557132  0.52373222    -0.47400
O657        O  0.20982435  0.36566628  0.98889736    -0.53700
C658        C  0.21720209  0.43072725  0.54953320     0.86400
O659        O  0.21403853  0.35573196  0.59467296    -0.55600
O660        O  0.23254145  0.30272843  0.54280860    -0.58900
In661      In  0.76151548  0.62165250  0.53557123     1.36900
C662        C  0.80457006  0.62358602  0.98944849     0.78800
O663        O  0.78427511  0.56474800  0.53917304    -0.59600
O664        O  0.72836241  0.57128638  0.54537356    -0.50500
C665        C  0.78967688  0.65451319  0.58540512     0.71500
O666        O  0.79359568  0.62102129  0.57979227    -0.45400
C667        C  0.69910123  0.65166036  0.51925698     0.76200
O668        O  0.80434431  0.65340779  0.51012757    -0.57300
O669        O  0.70521082  0.64196150  0.54641766    -0.47400
O670        O  0.77226082  0.61391868  0.98947926    -0.53700
C671        C  0.75446604  0.54950633  0.54375241     0.86400
O672        O  0.77132752  0.67103068  0.56576109    -0.55600
O673        O  0.72399650  0.64445186  0.50081672    -0.58900
In674      In  0.76800176  0.37358485  0.53647020     1.36900
C675        C  0.80217667  0.35611634  0.98491007     0.78800
O676        O  0.74274528  0.32098787  0.52249127    -0.59600
O677        O  0.70842526  0.36653843  0.52858004    -0.50500
C678        C  0.78866853  0.34876625  0.59135980     0.71500
O679        O  0.80643199  0.34338155  0.56721922    -0.45400
C680        C  0.77373669  0.44618296  0.54175250     0.76200
O681        O  0.81352674  0.35306011  0.50712767    -0.57300
O682        O  0.74398120  0.42988717  0.54317362    -0.47400
O683        O  0.77252150  0.37197182  0.98828483    -0.53700
C684        C  0.71157958  0.33378886  0.52005575     0.86400
O685        O  0.76011219  0.36643564  0.58742411    -0.55600
O686        O  0.80029357  0.42535926  0.53828727    -0.58900
In687      In  0.86814927  0.27782204  0.70902296     1.36900
C688        C  0.86558209  0.31051095  0.76300836     0.78800
O689        O  0.82138644  0.25019794  0.73108630    -0.59600
O690        O  0.85945982  0.21646140  0.70885634    -0.50500
C691        C  0.84062320  0.29989512  0.65543538     0.71500
O692        O  0.83183912  0.31426941  0.68060713    -0.45400
C693        C  0.93897617  0.28300605  0.70299831     0.76200
O694        O  0.85177909  0.32468230  0.73951871    -0.57300
O695        O  0.92295539  0.25279886  0.70488290    -0.47400
O696        O  0.88132243  0.28059809  0.75864231    -0.53700
C697        C  0.83161122  0.21826190  0.72516898     0.86400
O698        O  0.86269731  0.27416249  0.65782449    -0.55600
O699        O  0.91866122  0.31043564  0.70300106    -0.58900
In700      In  0.10944590  0.26570455  0.71684369     1.36900
C701        C  0.10954656  0.30163370  0.76968906     0.78800
O702        O  0.05505795  0.29095961  0.70985889    -0.59600
O703        O  0.05918463  0.23329814  0.70906758    -0.50500
C704        C  0.13599227  0.28704193  0.66269571     0.71500
O705        O  0.14003402  0.30537882  0.68687203    -0.45400
C706        C  0.15237280  0.21242895  0.73593348     0.76200
O707        O  0.12028969  0.31599379  0.74515167    -0.57300
O708        O  0.12234254  0.20601171  0.72393544    -0.47400
O709        O  0.09721730  0.26983845  0.76694407    -0.53700
C710        C  0.03911028  0.26079079  0.70722302     0.86400
O711        O  0.11901675  0.25776925  0.66630518    -0.55600
O712        O  0.16115349  0.24554970  0.73617614    -0.58900
In713      In  0.71405231  0.86959604  0.79074812     1.36900
C714        C  0.67968107  0.85955673  0.73814396     0.80400
O715        O  0.69273778  0.92740437  0.78960686    -0.59600
O716        O  0.74733005  0.91990150  0.80098149    -0.50500
C717        C  0.68728043  0.84877384  0.84488942     0.71500
O718        O  0.67241062  0.84117650  0.81974454    -0.45400
C719        C  0.76556219  0.82126337  0.77794565     0.76200
O720        O  0.66454118  0.85449955  0.76357883    -0.57300
O721        O  0.76782774  0.85411605  0.76998941    -0.47400
O722        O  0.71141706  0.87072591  0.73970663    -0.53700
C723        C  0.72227344  0.94225010  0.79620712     0.86400
O724        O  0.71541883  0.86767556  0.84241304    -0.55600
O725        O  0.73905080  0.81423965  0.79464229    -0.58900
In726      In  0.71031677  0.11942305  0.78406604     1.36900
C727        C  0.67940546  0.13390632  0.73113705     0.78800
O728        O  0.74554805  0.16762154  0.79410114    -0.59600
O729        O  0.76405967  0.12981360  0.76107286    -0.50500
C730        C  0.68011830  0.14760153  0.83435274     0.71500
O731        O  0.67149726  0.15708623  0.80768281    -0.45400
C732        C  0.70574924  0.04627132  0.78903526     0.76200
O733        O  0.66300905  0.13777216  0.75617220    -0.57300
O734        O  0.73371358  0.06354635  0.79663808    -0.47400
O735        O  0.71111925  0.12279666  0.73320311    -0.53700
C736        C  0.76813887  0.16052344  0.77359167     0.86400
O737        O  0.70421299  0.12333647  0.83543451    -0.55600
O738        O  0.68075590  0.06632447  0.77976445    -0.58900
In739      In  0.62362792  0.19284882  0.96950473     1.36900
C740        C  0.61447926  0.17363134  0.51211632     0.78800
O741        O  0.67829299  0.21479265  0.97724289    -0.59600
O742        O  0.63486980  0.25081964  0.98561705    -0.50500
C743        C  0.65197987  0.16677732  0.91777199     0.71500
O744        O  0.65422278  0.15084054  0.94312290    -0.45400
C745        C  0.55331095  0.19243544  0.95969156     0.76200
O746        O  0.63578790  0.14444120  0.99883999    -0.57300
O747        O  0.57148521  0.22150156  0.95854834    -0.47400
O748        O  0.60840050  0.20725356  0.51101126    -0.53700
C749        C  0.66824557  0.24537990  0.98702692     0.86400
O750        O  0.63480523  0.19653231  0.91854556    -0.55600
O751        O  0.57136075  0.16402714  0.96428092    -0.58900
In752      In  0.38256826  0.21210403  0.96743196     1.36900
C753        C  0.36727856  0.17151407  0.51415546     0.78800
O754        O  0.43721394  0.18721272  0.96107316    -0.59600
O755        O  0.43353216  0.24480834  0.96380607    -0.50500
C756        C  0.35795612  0.18844529  0.91286264     0.71500
O757        O  0.35211693  0.17160719  0.93741949    -0.45400
C758        C  0.33867496  0.26637876  0.98319749     0.76200
O759        O  0.37020690  0.16294103  0.99638345    -0.57300
O760        O  0.36833213  0.27206299  0.97025243    -0.47400
O761        O  0.38507095  0.20025949  0.51009450    -0.53700
C762        C  0.45355065  0.21733913  0.96104709     0.86400
O763        O  0.37614185  0.21704200  0.91625287    -0.55600
O764        O  0.33076796  0.23325432  0.98611765    -0.58900
In765      In  0.60733743  0.77342648  0.96040859     1.36900
C766        C  0.61621561  0.80888525  0.51672218     0.78800
O767        O  0.55742823  0.80708276  0.95693144    -0.59600
O768        O  0.55237026  0.75010929  0.94955917    -0.50500
C769        C  0.63548807  0.79627880  0.90729858     0.71500
O770        O  0.63953876  0.81343538  0.93210320    -0.45400
C771        C  0.64597649  0.71605407  0.97789495     0.76200
O772        O  0.62552349  0.81770881  0.99266864    -0.57300
O773        O  0.61455091  0.71258129  0.96760114    -0.47400
O774        O  0.59523758  0.78235614  0.51388717    -0.53700
C775        C  0.53685139  0.78065919  0.95135393     0.86400
O776        O  0.61762732  0.76728261  0.90976806    -0.55600
O777        O  0.65822232  0.74797757  0.97658245    -0.58900
In778      In  0.36539836  0.77338262  0.95663155     1.36900
C779        C  0.35894182  0.80585615  0.52234121     0.78800
O780        O  0.30925697  0.75283795  0.95999240    -0.59600
O781        O  0.35077778  0.71599251  0.97156319    -0.50500
C782        C  0.34051312  0.81070293  0.90906563     0.71500
O783        O  0.34998107  0.82557510  0.93375759    -0.45400
C784        C  0.43533215  0.76465619  0.94480897     0.76200
O785        O  0.35127548  0.81896680  0.98869405    -0.57300
O786        O  0.41233234  0.74108684  0.93718294    -0.47400
O787        O  0.36298380  0.77201247  0.51980385    -0.53700
C788        C  0.31752908  0.72207170  0.97037197     0.86400
O789        O  0.34481898  0.77651891  0.90816459    -0.55600
O790        O  0.42227284  0.79281132  0.95697404    -0.58900
In791      In  0.26291961  0.87405461  0.78859137     1.36900
C792        C  0.30341736  0.86089367  0.74012878     0.78800
O793        O  0.22260200  0.85659172  0.75360420    -0.59600
O794        O  0.20935772  0.84823658  0.80009442    -0.50500
C795        C  0.29206325  0.83754920  0.83509752     0.71500
O796        O  0.27621535  0.82222132  0.81317554    -0.45400
C797        C  0.25907952  0.94602692  0.79896387     0.76200
O798        O  0.31102704  0.84806066  0.76593790    -0.57300
O799        O  0.23336965  0.92477067  0.80466826    -0.47400
O800        O  0.27644642  0.88135131  0.73947538    -0.53700
C801        C  0.20085055  0.84331730  0.77246410     0.86400
O802        O  0.29250778  0.87190135  0.83372305    -0.55600
O803        O  0.28676700  0.93031045  0.78900106    -0.58900
In804      In  0.28162082  0.12065101  0.79240236     1.36900
C805        C  0.31108606  0.13103590  0.73791300     0.78800
O806        O  0.31005391  0.06703804  0.78994399    -0.59600
O807        O  0.25472028  0.06627211  0.80141140    -0.50500
C808        C  0.30594729  0.14048114  0.84769425     0.71500
O809        O  0.32287268  0.14692184  0.82326181    -0.45400
C810        C  0.22826169  0.16598487  0.77966317     0.76200
O811        O  0.32691247  0.14033714  0.76224047    -0.57300
O812        O  0.22467469  0.13186292  0.77744371    -0.47400
O813        O  0.28128104  0.11574567  0.74159420    -0.53700
C814        C  0.28287298  0.04807698  0.79619479     0.86400
O815        O  0.27668116  0.12381131  0.84384271    -0.55600
O816        O  0.25749270  0.17627160  0.79107626    -0.58900
C817        C  0.25660430  0.98612815  0.80267667    -0.15200
C818        C  0.28466953  0.00782055  0.79624474    -0.30400
H819        H  0.23113883  0.99797702  0.80950577     0.13800
H820        H  0.31004077  0.99561170  0.78956079     0.14400
C821        C  0.32508083  0.83213824  0.88380695    -0.15200
C822        C  0.30879302  0.81632093  0.85986659    -0.30400
H823        H  0.32587963  0.86166300  0.88561629     0.13800
H824        H  0.30729882  0.78679547  0.85845048     0.14400
C825        C  0.49768364  0.78588102  0.94882201    -0.15200
C826        C  0.47449791  0.75916175  0.94141837    -0.30400
H827        H  0.48743302  0.81266307  0.95493219     0.13800
H828        H  0.48434980  0.73243180  0.93475380     0.14400
C829        C  0.34520914  0.17620971  0.88236571    -0.15200
C830        C  0.31900086  0.15139356  0.87847689    -0.30400
H831        H  0.35695611  0.18916327  0.86244516     0.13800
H832        H  0.30587326  0.13975278  0.89834419     0.14400
C833        C  0.51393535  0.19082798  0.95720366    -0.15200
C834        C  0.49296408  0.22048126  0.95886241    -0.30400
H835        H  0.50173342  0.16395459  0.95645292     0.13800
H836        H  0.50493357  0.24741619  0.96031450     0.14400
C837        C  0.66324817  0.16420685  0.86178536    -0.15200
C838        C  0.66878705  0.15112140  0.88998540    -0.30400
H839        H  0.64538943  0.18724322  0.85860013     0.13800
H840        H  0.68581965  0.12739050  0.89290681     0.14400
C841        C  0.64969286  0.80893885  0.87748722    -0.15200
C842        C  0.67326845  0.83656431  0.87491989    -0.30400
H843        H  0.64080150  0.79467744  0.85704465     0.13800
H844        H  0.68350849  0.84977581  0.89538749     0.14400
C845        C  0.72761804  0.98247296  0.79764622    -0.15200
C846        C  0.70140949  0.00599547  0.79010695    -0.30400
H847        H  0.75384963  0.99280937  0.80398256     0.13800
H848        H  0.67544739  0.99525673  0.78338936     0.14400
C849        C  0.17515652  0.18375055  0.74926419    -0.15200
C850        C  0.20198822  0.19258497  0.76835391    -0.30400
H851        H  0.16988611  0.15543861  0.74348771     0.13800
H852        H  0.20678046  0.22104073  0.77400442     0.14400
C853        C  0.81253624  0.18593193  0.73699354    -0.15200
C854        C  0.79435353  0.18809605  0.76354678    -0.30400
H855        H  0.81264810  0.16088347  0.72367941     0.13800
H856        H  0.79533957  0.21327551  0.77671318     0.14400
C857        C  0.97834392  0.28652907  0.70224071    -0.15200
C858        C  0.00000157  0.25735279  0.70336589    -0.30400
H859        H  0.98968413  0.31379664  0.70257012     0.13800
H860        H  0.98863270  0.23009877  0.70307985     0.14400
C861        C  0.69447192  0.27113659  0.99982272    -0.15200
C862        C  0.68172583  0.31244359  0.50700672    -0.30400
H863        H  0.71609247  0.27398918  0.48645274     0.13800
H864        H  0.65440427  0.32183802  0.51036196     0.14400
C865        C  0.82731680  0.31209512  0.62527424    -0.15200
C866        C  0.80037736  0.33609382  0.62189975    -0.30400
H867        H  0.84025920  0.30076611  0.60509296     0.13800
H868        H  0.78645395  0.34655432  0.64192483     0.14400
C869        C  0.66671022  0.67203500  0.50992274    -0.15200
C870        C  0.66651091  0.68572566  0.99152972    -0.30400
H871        H  0.70046590  0.72082569  0.01627721     0.13800
H872        H  0.68437469  0.67851046  0.46453437     0.14400
C873        C  0.75000129  0.50941156  0.54597489    -0.15200
C874        C  0.77787162  0.48633638  0.54309077    -0.30400
H875        H  0.72306734  0.49866283  0.54862372     0.13800
H876        H  0.80474492  0.49723734  0.54036755     0.14400
C877        C  0.28547130  0.28436299  0.51651195    -0.15200
C878        C  0.31553481  0.29593427  0.99489140    -0.30400
H879        H  0.28076715  0.25631047  0.52329443     0.13800
H880        H  0.31629761  0.31969359  0.48882068     0.14400
C881        C  0.17354393  0.32528911  0.62882121    -0.15200
C882        C  0.14913793  0.29869339  0.63235993    -0.30400
H883        H  0.18525085  0.33829000  0.64880462     0.13800
H884        H  0.13881547  0.28449226  0.61238405     0.14400
C885        C  0.28968256  0.69698521  0.98152859    -0.15200
C886        C  0.29432967  0.66588565  0.51475438    -0.30400
H887        H  0.25969594  0.69957363  0.48970336     0.13800
H888        H  0.32329508  0.65971507  0.00466683     0.14400
C889        C  0.19471597  0.49397901  0.54968460    -0.15200
C890        C  0.22235575  0.47061909  0.55154113    -0.30400
H891        H  0.16757109  0.48351905  0.54783268     0.13800
H892        H  0.24952061  0.48095351  0.55359365     0.14400
C893        C  0.16525830  0.81112440  0.73347152    -0.15200
C894        C  0.16972553  0.82112364  0.76291025    -0.30400
H895        H  0.18247132  0.82261060  0.71593511     0.13800
H896        H  0.15328786  0.80892160  0.78063000     0.14400
C897        C  0.14404779  0.66944359  0.62921530    -0.15200
C898        C  0.17346581  0.64840347  0.62679577    -0.30400
H899        H  0.12870860  0.67566747  0.60881279     0.13800
H900        H  0.18982700  0.64327969  0.64682651     0.14400
C901        C  0.78985602  0.79219771  0.76734466    -0.15200
C902        C  0.81216126  0.79565534  0.74330623    -0.30400
H903        H  0.78644593  0.76564904  0.77786274     0.13800
H904        H  0.81617528  0.82194565  0.73254296     0.14400
C905        C  0.82004559  0.65503811  0.63580098    -0.15200
C906        C  0.80525071  0.67335098  0.61243436    -0.30400
H907        H  0.82031778  0.62543969  0.63518401     0.13800
H908        H  0.80390318  0.70290334  0.61333590     0.14400
C909        C  0.97597861  0.69878725  0.70141791    -0.15200
C910        C  0.99746230  0.72817871  0.69996311    -0.30400
H911        H  0.98780084  0.67177535  0.70261001     0.13800
H912        H  0.98588761  0.75530464  0.69906860     0.14400
C913        C  0.64844023  0.85424624  0.68434817    -0.12000
C914        C  0.66224945  0.85406370  0.70925517    -0.13600
C915        C  0.62466116  0.83768359  0.57164998    -0.12000
C916        C  0.62303296  0.82518730  0.54610658    -0.13600
C917        C  0.66279966  0.13917991  0.70210032    -0.12000
C918        C  0.64871681  0.13650563  0.67750485    -0.13600
C919        C  0.62030438  0.14252739  0.56586099    -0.12000
C920        C  0.61815921  0.15527342  0.54067305    -0.13600
C921        C  0.65072011  0.01064237  0.61430861    -0.12100
C922        C  0.61821291  0.02974677  0.61339349     0.10000
C923        C  0.58608747  0.01043652  0.60971599    -0.12100
C924        C  0.58613558  0.97241786  0.60978376    -0.12100
C925        C  0.61832484  0.95340454  0.61360982     0.10000
C926        C  0.65077990  0.97270330  0.61434514    -0.12100
H927        H  0.67587750  0.02506620  0.61678561     0.14000
H928        H  0.56072205  0.02446843  0.60959569     0.14000
H929        H  0.56081640  0.95819394  0.60980640     0.14000
H930        H  0.67597938  0.95844280  0.61705258     0.14000
C931        C  0.32593312  0.13602905  0.70795361    -0.12000
C932        C  0.33797897  0.13417641  0.68240741    -0.13600
C933        C  0.36409573  0.15514824  0.54376849    -0.12000
C934        C  0.36271549  0.14314181  0.56935074    -0.13600
C935        C  0.47346842  0.08913161  0.61134890    -0.12100
C936        C  0.45441411  0.11370031  0.62986932     0.10000
C937        C  0.47360131  0.14022516  0.64635882    -0.12100
C938        C  0.51087771  0.14061520  0.64586657    -0.12100
C939        C  0.53001743  0.11451343  0.62883676     0.10000
C940        C  0.51078021  0.08954440  0.61082487    -0.12100
H941        H  0.45994733  0.06902504  0.59755459     0.14000
H942        H  0.45996563  0.16099118  0.65959828     0.14000
H943        H  0.52451606  0.16163833  0.65875980     0.14000
H944        H  0.52411529  0.06970655  0.59660111     0.14000
C945        C  0.33871010  0.85315906  0.68885644    -0.12000
C946        C  0.32364096  0.85336371  0.71313036    -0.13600
C947        C  0.35874131  0.83674004  0.57664695    -0.12000
C948        C  0.35784963  0.82337416  0.55154201    -0.13600
C949        C  0.47438300  0.84357050  0.65115924    -0.12100
C950        C  0.45474891  0.86848542  0.63355794     0.10000
C951        C  0.47349266  0.89157832  0.61361600    -0.12100
C952        C  0.51092628  0.89154941  0.61292563    -0.12100
C953        C  0.53054147  0.86841650  0.63215080     0.10000
C954        C  0.51167844  0.84353971  0.65047029    -0.12100
H955        H  0.46108539  0.82386087  0.66556372     0.14000
H956        H  0.45961232  0.91052589  0.59907459     0.14000
H957        H  0.52415340  0.91048482  0.59787606     0.14000
H958        H  0.52558905  0.82380718  0.66436967     0.14000
C959        C  0.39720152  0.97181387  0.61195338    -0.12100
C960        C  0.36535073  0.95273280  0.61734333     0.10000
C961        C  0.33282537  0.97186302  0.61881464    -0.12100
C962        C  0.33266694  0.00981343  0.61788397    -0.12100
C963        C  0.36503642  0.02908042  0.61552316     0.10000
C964        C  0.39704505  0.00980455  0.61107585    -0.12100
H965        H  0.42258187  0.95773626  0.61130405     0.14000
H966        H  0.30785216  0.95755286  0.62269016     0.14000
H967        H  0.30756139  0.02417229  0.62100716     0.14000
H968        H  0.42231873  0.02392802  0.60978466     0.14000
C969        C  0.16028629  0.63118681  0.95125921    -0.12000
C970        C  0.14762407  0.63121689  0.92594776    -0.13600
C971        C  0.12183811  0.64593730  0.81368223    -0.12000
C972        C  0.12109865  0.65996413  0.78876636    -0.13600
C973        C  0.85796803  0.64620363  0.82422144    -0.12000
C974        C  0.85767425  0.65849972  0.79872387    -0.13600
C975        C  0.83892761  0.62846275  0.93700130    -0.12000
C976        C  0.82407870  0.62860908  0.96149823    -0.13600
C977        C  0.97384883  0.63881852  0.89551373    -0.12100
C978        C  0.95395994  0.61263000  0.87933349     0.10000
C979        C  0.97224013  0.58866785  0.85960032    -0.12100
C980        C  0.00964044  0.58926557  0.85771768    -0.12100
C981        C  0.02961057  0.61375077  0.87561768     0.10000
C982        C  0.01108570  0.63942984  0.89362978    -0.12100
H983        H  0.96072288  0.65903590  0.90970915     0.14000
H984        H  0.95799155  0.56886571  0.84599774     0.14000
H985        H  0.02260659  0.56998227  0.84268230     0.14000
H986        H  0.02525234  0.66015804  0.90645436     0.14000
C987        C  0.14364971  0.35564695  0.93480213    -0.12000
C988        C  0.15821222  0.35491282  0.95941655    -0.13600
C989        C  0.11198759  0.31960623  0.79890754    -0.12000
C990        C  0.11373771  0.33391680  0.82377458    -0.13600
C991        C  0.14956951  0.47197722  0.86014621    -0.12100
C992        C  0.11687397  0.45319479  0.86104965     0.10000
C993        C  0.08476299  0.47240813  0.85709465    -0.12100
C994        C  0.08515249  0.51037957  0.85539761    -0.12100
C995        C  0.11761414  0.52942300  0.85736432     0.10000
C996        C  0.14994077  0.50986482  0.85819027    -0.12100
H997        H  0.17465202  0.45752295  0.86292427     0.14000
H998        H  0.05922883  0.45842605  0.85808892     0.14000
H999        H  0.05996973  0.52476286  0.85549139     0.14000
H1000       H  0.17532953  0.52407046  0.85962218     0.14000
C1001       C  0.86321082  0.32651565  0.79291065    -0.12000
C1002       C  0.86246197  0.33825465  0.81867463    -0.13600
C1003       C  0.83158600  0.35133881  0.93030313    -0.12000
C1004       C  0.81782922  0.35049344  0.95525405    -0.13600
C1005       C  0.89241462  0.47195509  0.85637602    -0.12100
C1006       C  0.86000750  0.45369254  0.86177636     0.10000
C1007       C  0.82818179  0.47381217  0.86443668    -0.12100
C1008       C  0.82937940  0.51171731  0.86515745    -0.12100
C1009       C  0.86238865  0.52989061  0.86319608     0.10000
C1010       C  0.89356722  0.50991982  0.85710461    -0.12100
H1011       H  0.91737922  0.45707128  0.85452557     0.14000
H1012       H  0.80276843  0.46023281  0.86803985     0.14000
H1013       H  0.80489201  0.52676644  0.86943894     0.14000
H1014       H  0.91927188  0.52327571  0.85593151     0.14000
C1015       C  0.96988392  0.37370003  0.85629901    -0.12100
C1016       C  0.95025000  0.37845322  0.88341358     0.10000
C1017       C  0.96876372  0.38477244  0.91084892    -0.12100
C1018       C  0.00608428  0.38484596  0.91138510    -0.12100
C1019       C  0.02581697  0.37853724  0.88450251     0.10000
C1020       C  0.00730764  0.37363875  0.85684483    -0.12100
H1021       H  0.95646213  0.36832404  0.83484986     0.14000
H1022       H  0.95444275  0.38975678  0.93199374     0.14000
H1023       H  0.01939102  0.39001064  0.93292504     0.14000
H1024       H  0.02153539  0.36816817  0.83576223     0.14000
loop_ 
_geom_bond_atom_site_label_1 
_geom_bond_atom_site_label_2 
_geom_bond_distance 
_geom_bond_site_symmetry_2 
_ccdc_geom_bond_type 
C1            C2   1.537       .  S
C1            C7   1.526       .  S
C1            C5   1.526       .  S
C1          C491   1.464       .  S
C2            H9   1.086       .  S
C2            C3   1.370       .  D
C3            C4   1.533       .  S
C3          C490   1.440       .  S
C4            C8   1.537       .  S
C4            C6   1.537       .  S
C4           H10   1.111       .  S
C5           H11   1.087       .  S
C5            C6   1.363       .  D
C6          C504   1.472       .  S
C7           H12   1.087       .  S
C7            C8   1.365       .  D
C8          C494   1.473       .  S
C13          C14   1.529       .  S
C13          C19   1.538       .  S
C13          C17   1.528       .  S
C13         C475   1.466       .  S
C14          H21   1.087       .  S
C14          C15   1.365       .  D
C15          C16   1.532       .  S
C15         C480   1.472       .  S
C16          C20   1.532       .  S
C16          C18   1.535       .  S
C16          H22   1.111       .  S
C17          H23   1.087       .  S
C17          C18   1.365       .  D
C18         C507   1.472       .  S
C19          H24   1.086       .  S
C19          C20   1.370       .  D
C20         C478   1.441       .  S
C25          C26   1.525       .  S
C25          C31   1.537       .  S
C25          C29   1.529       .  S
C25         C463   1.468       .  S
C26          H33   1.087       .  S
C26          C27   1.362       .  D
C27          C28   1.536       .  S
C27         C497   1.473       .  S
C28          C32   1.533       .  S
C28          C30   1.545       .  S
C28          H34   1.108       .  S
C29          H35   1.085       .  S
C29          C30   1.371       .  D
C30         C466   1.494       .  S
C31          H36   1.086       .  S
C31          C32   1.369       .  D
C32         C461   1.441       .  S
C37          C38   1.539       .  S
C37          C43   1.520       .  S
C37          C41   1.527       .  S
C37         C458   1.466       .  S
C38          H45   1.086       .  S
C38          C39   1.372       .  D
C39          C40   1.535       .  S
C39         C459   1.442       .  S
C40          C44   1.539       .  S
C40          C42   1.547       .  S
C40          H46   1.108       .  S
C41          H47   1.085       .  S
C41          C42   1.369       .  D
C42         C469   1.493       .  S
C43          H48   1.087       .  S
C43          C44   1.361       .  D
C44         C483   1.475       .  S
C49          C50   1.530       .  S
C49          C55   1.524       .  S
C49          C53   1.529       .  S
C49         C433   1.459       .  S
C50          H57   1.086       .  S
C50          C51   1.365       .  D
C51          C52   1.537       .  S
C51         C435   1.434       .  S
C52          C56   1.539       .  S
C52          C54   1.544       .  S
C52          H58   1.109       .  S
C53          H59   1.085       .  S
C53          C54   1.369       .  D
C54         C438   1.491       .  S
C55          H60   1.087       .  S
C55          C56   1.362       .  D
C56         C448   1.474       .  S
C61          C62   1.522       .  S
C61          C67   1.540       .  S
C61          C65   1.528       .  S
C61         C420   1.468       .  S
C62          H69   1.087       .  S
C62          C63   1.360       .  D
C63          C64   1.538       .  S
C63         C451   1.473       .  S
C64          C68   1.536       .  S
C64          C66   1.545       .  S
C64          H70   1.109       .  S
C65          H71   1.085       .  S
C65          C66   1.368       .  D
C66         C424   1.488       .  S
C67          H72   1.086       .  S
C67          C68   1.372       .  D
C68         C422   1.446       .  S
C73          C74   1.530       .  S
C73          C79   1.523       .  S
C73          C77   1.528       .  S
C73         C406   1.453       .  S
C74          H81   1.086       .  S
C74          C75   1.364       .  D
C75          C76   1.530       .  S
C75         C407   1.430       .  S
C76          C80   1.535       .  S
C76          C78   1.545       .  S
C76          H82   1.107       .  S
C77          H83   1.085       .  S
C77          C78   1.370       .  D
C78         C427   1.492       .  S
C79          H84   1.087       .  S
C79          C80   1.361       .  D
C80         C410   1.468       .  S
C85          C86   1.523       .  S
C85          C91   1.540       .  S
C85          C89   1.532       .  S
C85         C401   1.470       .  S
C86          H93   1.088       .  S
C86          C87   1.359       .  D
C87          C88   1.534       .  S
C87         C413   1.468       .  S
C88          C92   1.531       .  S
C88          C90   1.544       .  S
C88          H94   1.108       .  S
C89          H95   1.085       .  S
C89          C90   1.372       .  D
C90         C441   1.493       .  S
C91          H96   1.086       .  S
C91          C92   1.371       .  D
C92         C403   1.441       .  S
In97         O99   2.238       .  S
In97        O100   2.276       .  S
In97        O108   2.256       .  S
In97        O102   2.278       .  S
In97        O104   2.254       .  S
In97        O105   2.281       .  S
In97        O106   2.234       .  S
In97        O109   2.228       .  S
C98         O104   1.264       .  A
C98         O106   1.259       .  A
C98         C462   1.435       .  S
O99         C107   1.261       .  A
O100        C107   1.264       .  A
C101        C393   1.482       .  S
C101        O108   1.259       .  A
C101        O102   1.261       .  A
C103        C390   1.479       .  S
C103        O105   1.262       .  A
C103        O109   1.257       .  A
C107        C397   1.479       .  S
In110       O112   2.222       .  S
In110       O113   2.265       .  S
In110       O121   2.271       .  S
In110       O115   2.254       .  S
In110       O117   2.260       .  S
In110       O118   2.280       .  S
In110       O119   2.241       .  S
In110       O122   2.231       .  S
C111        O117   1.261       .  A
C111        O119   1.256       .  A
C111        C460   1.436       .  S
O112        C120   1.259       .  A
O113        C120   1.265       .  A
C114        C385   1.482       .  S
C114        O121   1.263       .  A
C114        O115   1.261       .  A
C116        C398   1.485       .  S
C116        O118   1.265       .  A
C116        O122   1.260       .  A
C120        C381   1.471       .  S
In123       O125   2.216       .  S
In123       O126   2.273       .  S
In123       O134   2.268       .  S
In123       O128   2.272       .  S
In123       O130   2.261       .  S
In123       O131   2.284       .  S
In123       O135   2.236       .  S
In123       O644   2.233   1_554  S
C124        O132   1.259       .  A
C124        O642   1.262       .  A
C124        C457   1.436       .  S
O125        C133   1.260       .  A
O126        C133   1.267       .  A
C127        C386   1.483       .  S
C127        O134   1.259       .  A
C127        O128   1.259       .  A
C129        C377   1.479       .  S
C129        O131   1.264       .  A
C129        O135   1.257       .  A
O130        C636   1.262   1_554  A
O132       In635   2.243       .  S
C133        C374   1.480   1_554  S
In136       O138   2.249       .  S
In136       O139   2.267       .  S
In136       O147   2.265       .  S
In136       O141   2.267       .  S
In136       O143   2.266       .  S
In136       O144   2.260       .  S
In136       O148   2.240       .  S
In136       O657   2.241   1_554  S
C137        O145   1.255       .  A
C137        O655   1.262       .  A
C137        C476   1.434       .  S
O138        C146   1.262       .  A
O139        C146   1.262       .  A
C140        C369   1.486       .  S
C140        O147   1.262       .  A
C140        O141   1.262       .  A
C142        C365   1.472       .  S
C142        O144   1.261       .  A
C142        O148   1.258       .  A
O143        C649   1.262   1_554  A
O145       In648   2.234       .  S
C146        C378   1.484       .  S
In149       O151   2.259       .  S
In149       O152   2.268       .  S
In149       O160   2.270       .  S
In149       O154   2.253       .  S
In149       O156   2.258       .  S
In149       O157   2.273       .  S
In149       O161   2.242       .  S
In149       O670   2.237   1_554  S
C150        O158   1.256       .  A
C150        O668   1.260       .  A
C150        C464   1.436       .  S
O151        C159   1.261       .  A
O152        C159   1.262       .  A
C153        C394   1.485       .  S
C153        O160   1.263       .  A
C153        O154   1.261       .  A
C155        C357   1.476       .  S
C155        O157   1.261       .  A
C155        O161   1.258       .  A
O156        C662   1.261   1_554  A
O158       In661   2.239       .  S
C159        C361   1.485       .  S
In162       O164   2.220       .  S
In162       O165   2.277       .  S
In162       O173   2.262       .  S
In162       O167   2.265       .  S
In162       O169   2.257       .  S
In162       O170   2.271       .  S
In162       O174   2.249       .  S
In162       O683   2.241   1_554  S
C163        O171   1.259       .  A
C163        O681   1.263       .  A
C163        C492   1.434       .  S
O164        C172   1.258       .  A
O165        C172   1.262       .  A
C166        C354   1.482       .  S
C166        O173   1.261       .  A
C166        O167   1.260       .  A
C168        C362   1.483       .  S
C168        O170   1.264       .  A
C168        O174   1.261       .  A
O169        C675   1.262   1_554  A
O171       In674   2.234       .  S
C172        C350   1.478       .  S
In175       O177   2.248       .  S
In175       O178   2.277       .  S
In175       O186   2.267       .  S
In175       O180   2.265       .  S
In175       O182   2.253       .  S
In175       O183   2.268       .  S
In175       O184   2.234       .  S
In175       O187   2.249       .  S
C176        O182   1.262       .  A
C176        O184   1.259       .  A
C176        C489   1.434       .  S
O177        C185   1.258       .  A
O178        C185   1.261       .  A
C179        C353   1.483       .  S
C179        O186   1.260       .  A
C179        O180   1.259       .  A
C181        C345   1.479       .  S
C181        O183   1.263       .  A
C181        O187   1.260       .  A
C185        C341   1.483       .  S
In188       O190   2.247       .  S
In188       O191   2.256       .  S
In188       O199   2.252       .  S
In188       O193   2.271       .  S
In188       O195   2.260       .  S
In188       O196   2.256       .  S
In188       O197   2.235       .  S
In188       O200   2.236       .  S
C189        O195   1.264       .  A
C189        O197   1.257       .  A
C189        C477   1.436       .  S
O190        C198   1.263       .  A
O191        C198   1.263       .  A
C192        C370   1.484       .  S
C192        O199   1.261       .  A
C192        O193   1.264       .  A
C194        C337   1.471       .  S
C194        O196   1.263       .  A
C194        O200   1.258       .  A
C198        C346   1.481       .  S
In201       O203   2.241       .  S
In201       O204   2.284       .  S
In201       O212   2.266       .  S
In201       O206   2.263       .  S
In201       O208   2.268       .  S
In201       O209   2.275       .  S
In201       O210   2.243       .  S
In201       O213   2.239       .  S
C202        O208   1.261       .  A
C202        O210   1.257       .  A
C202        C402   1.439       .  S
O203        C211   1.260       .  A
O204        C211   1.264       .  A
C205        C330   1.488       .  S
C205        O212   1.264       .  A
C205        O206   1.263       .  A
C207        C389   1.474       .  S
C207        O209   1.260       .  A
C207        O213   1.257       .  A
C211        C333   1.483       .  S
In214       O216   2.239       .  S
In214       O217   2.277       .  S
In214       O225   2.251       .  S
In214       O219   2.252       .  S
In214       O221   2.235       .  S
In214       O222   2.278       .  S
In214       O223   2.222       .  S
In214       O226   2.247       .  S
C215        O221   1.261       .  A
C215        O223   1.257       .  A
C215        C405   1.422       .  S
O216        C224   1.257       .  A
O217        C224   1.263       .  A
C218        C325   1.477       .  S
C218        O225   1.263       .  A
C218        O219   1.261       .  A
C220        C334   1.488   1_545  S
C220        O222   1.265       .  A
C220        O226   1.260       .  A
C224        C342   1.478       .  S
In227       O229   2.232       .  S
In227       O230   2.265       .  S
In227       O238   2.260       .  S
In227       O232   2.244       .  S
In227       O234   2.254       .  S
In227       O235   2.261       .  S
In227       O239   2.245       .  S
In227       O748   2.228       .  S
C228        O236   1.256       .  A
C228        O746   1.260   1_554  A
C228        C408   1.424       .  S
O229        C237   1.258       .  A
O230        C237   1.263       .  A
C231        C326   1.478       .  S
C231        O238   1.263       .  A
C231        O232   1.261       .  A
C233        C321   1.480       .  S
C233        O235   1.262       .  A
C233        O239   1.261       .  A
O234        C740   1.261       .  A
O236       In739   2.226   1_554  S
C237        C349   1.472       .  S
In240       O242   2.242       .  S
In240       O243   2.264       .  S
In240       O251   2.260       .  S
In240       O245   2.263       .  S
In240       O247   2.252       .  S
In240       O248   2.272       .  S
In240       O252   2.225       .  S
In240       O761   2.235       .  S
C241        O249   1.259       .  A
C241        O759   1.263   1_554  A
C241        C421   1.441       .  S
O242        C250   1.260       .  A
O243        C250   1.263       .  A
C244        C317   1.480       .  S
C244        O251   1.260       .  A
C244        O245   1.260       .  A
C246        C366   1.475       .  S
C246        O248   1.262       .  A
C246        O252   1.258       .  A
O247        C753   1.263       .  A
O249       In752   2.248   1_554  S
C250        C322   1.477       .  S
In253       O255   2.244       .  S
In253       O256   2.270       .  S
In253       O264   2.249       .  S
In253       O258   2.270       .  S
In253       O260   2.272       .  S
In253       O261   2.279       .  S
In253       O265   2.249       .  S
In253       O774   2.236       .  S
C254        O262   1.259       .  A
C254        O772   1.264   1_554  A
C254        C404   1.435       .  S
O255        C263   1.260       .  A
O256        C263   1.264       .  A
C257        C329   1.487       .  S
C257        O264   1.264       .  A
C257        O258   1.267       .  A
C259        C358   1.474       .  S
C259        O261   1.257       .  A
C259        O265   1.255       .  A
O260        C766   1.263       .  A
O262       In765   2.233   1_554  S
C263        C313   1.480       .  S
In266       O268   2.232       .  S
In266       O269   2.275       .  S
In266       O277   2.261       .  S
In266       O271   2.244       .  S
In266       O273   2.250       .  S
In266       O274   2.265       .  S
In266       O278   2.249       .  S
In266       O787   2.232       .  S
C267        O275   1.257       .  A
C267        O785   1.259   1_554  A
C267        C436   1.427       .  S
O268        C276   1.257       .  A
O269        C276   1.262       .  A
C270        C309   1.478       .  S
C270        O277   1.265       .  A
C270        O271   1.260       .  A
C272        C314   1.482       .  S
C272        O274   1.263       .  A
C272        O278   1.261       .  A
O273        C779   1.260       .  A
O275       In778   2.237   1_554  S
C276        C373   1.472       .  S
In279       O281   2.221       .  S
In279       O282   2.275       .  S
In279       O290   2.270       .  S
In279       O284   2.244       .  S
In279       O286   2.237       .  S
In279       O287   2.263       .  S
In279       O288   2.237       .  S
In279       O291   2.249       .  S
C280        O286   1.260       .  A
C280        O288   1.259       .  A
C280        C434   1.428       .  S
O281        C289   1.258       .  A
O282        C289   1.263       .  A
C283        C310   1.478       .  S
C283        O290   1.263       .  A
C283        O284   1.257       .  A
C285        C305   1.480       .  S
C285        O287   1.264       .  A
C285        O291   1.259       .  A
C289        C382   1.478       .  S
In292       O294   2.267       .  S
In292       O295   2.246       .  S
In292       O303   2.262       .  S
In292       O297   2.264       .  S
In292       O299   2.255       .  S
In292       O300   2.256       .  S
In292       O301   2.243       .  S
In292       O304   2.240       .  S
C293        O299   1.262       .  A
C293        O301   1.258       .  A
C293        C419   1.437       .  S
O294        C302   1.264       .  A
O295        C302   1.259       .  A
C296        C318   1.480       .  S
C296        O303   1.258       .  A
C296        O297   1.259       .  A
C298        C338   1.473       .  S
C298        O300   1.259       .  A
C298        O304   1.259       .  A
C302        C306   1.480   1_545  S
C305        H307   1.086       .  S
C305        C306   1.343       .  D
C306        H308   1.086       .  S
C309        H311   1.086       .  S
C309        C310   1.342       .  D
C310        H312   1.086       .  S
C313        H315   1.087       .  S
C313        C314   1.346       .  D
C314        H316   1.086       .  S
C317        H319   1.087       .  S
C317        C318   1.345       .  D
C318        H320   1.087       .  S
C321        H323   1.086       .  S
C321        C322   1.345       .  D
C322        H324   1.087       .  S
C325        H327   1.087       .  S
C325        C326   1.346       .  D
C326        H328   1.087       .  S
C329        H331   1.086       .  S
C329        C330   1.348       .  D
C330        H332   1.086       .  S
C333        H335   1.087       .  S
C333        C334   1.348       .  D
C334        H336   1.086       .  S
C337        H339   1.087       .  S
C337        C338   1.343       .  D
C338        H340   1.086       .  S
C341        H343   1.086       .  S
C341        C342   1.347       .  D
C342        H344   1.087       .  S
C345        H347   1.087       .  S
C345        C346   1.345   1_655  D
C346        H348   1.086   1_455  S
C349        H863   1.087       .  S
C349        C862   1.344       .  D
C350        H352   1.086       .  S
C350        C861   1.345   1_554  D
H351        C861   1.087       .  S
C353        H355   1.086       .  S
C353        C354   1.347       .  D
C354        H356   1.086       .  S
C357        H871   1.087       .  S
C357        C870   1.347   1_554  D
C358        H872   1.087       .  S
C358        C869   1.348       .  D
H359        C869   1.086       .  S
H360        C870   1.086       .  S
C361        H363   1.086       .  S
C361        C362   1.347       .  D
C362        H364   1.086       .  S
C365        H367   1.087       .  S
C365        C878   1.344   1_554  D
C366        H880   1.086       .  S
C366        C877   1.345       .  D
H368        C878   1.086       .  S
C369        H371   1.086       .  S
C369        C370   1.347       .  D
C370        H372   1.087       .  S
C373        H887   1.087       .  S
C373        C886   1.345       .  D
C374        H888   1.086   1_556  S
C374        C885   1.347       .  D
H375        C885   1.087       .  S
H376        C886   1.086       .  S
C377        H379   1.087       .  S
C377        C378   1.345       .  D
C378        H380   1.086       .  S
C381        H383   1.087       .  S
C381        C382   1.346       .  D
C382        H384   1.086       .  S
C385        H387   1.086       .  S
C385        C386   1.345       .  D
C386        H388   1.087       .  S
C389        H391   1.087       .  S
C389        C390   1.347       .  D
C390        H392   1.086       .  S
C393        H395   1.087       .  S
C393        C394   1.347       .  D
C394        H396   1.086       .  S
C397        H399   1.087       .  S
C397        C398   1.348   1_655  D
C398        H400   1.086   1_455  S
C401        C402   1.208       .  T
C403        C404   1.206       .  T
C405        C406   1.198       .  T
C407        C408   1.199       .  T
C409        C410   1.402   1_565  A
C409        C414   1.392       .  A
C409        H415   1.083   1_565  S
C410        C411   1.400   1_545  A
C411        C412   1.391       .  A
C411        H416   1.078   1_565  S
C412        C413   1.399       .  A
C412        H417   1.080       .  S
C413        C414   1.403       .  A
C414        H418   1.083       .  S
C419        C420   1.207       .  T
C421        C422   1.209       .  T
C423        C424   1.406       .  A
C423        C428   1.394       .  A
C423        H429   1.082       .  S
C424        C425   1.403       .  A
C425        C426   1.393       .  A
C425        H430   1.078       .  S
C426        C427   1.405       .  A
C426        H431   1.076       .  S
C427        C428   1.407       .  A
C428        H432   1.081       .  S
C433        C434   1.201       .  T
C435        C436   1.201       .  T
C437        C438   1.406       .  A
C437        C442   1.395       .  A
C437        H443   1.082       .  S
C438        C439   1.405       .  A
C439        C440   1.397       .  A
C439        H444   1.077       .  S
C440        C441   1.407       .  A
C440        H445   1.080       .  S
C441        C442   1.407       .  A
C442        H446   1.082       .  S
C447        C448   1.401       .  A
C447        C452   1.395   1_565  A
C447        H453   1.076       .  S
C448        C449   1.402       .  A
C449        C450   1.394   1_565  A
C449        H454   1.083       .  S
C450        C451   1.404       .  A
C450        H455   1.083       .  S
C451        C452   1.400       .  A
C452        H456   1.079       .  S
C457        C458   1.206       .  T
C459        C460   1.206       .  T
C461        C462   1.206       .  T
C463        C464   1.206       .  T
C465        C466   1.406       .  A
C465        C470   1.394   1_655  A
C465        H471   1.081       .  S
C466        C467   1.406       .  A
C467        C468   1.397   1_655  A
C467        H472   1.077       .  S
C468        C469   1.404       .  A
C468        H473   1.078       .  S
C469        C470   1.408       .  A
C470        H474   1.081       .  S
C475        C476   1.205       .  T
C477        C478   1.206       .  T
C479        C480   1.401       .  A
C479        C484   1.391       .  A
C479        H485   1.083       .  S
C480        C481   1.404       .  A
C481        C482   1.397       .  A
C481        H486   1.083       .  S
C482        C483   1.402       .  A
C482        H487   1.080       .  S
C483        C484   1.405       .  A
C484        H488   1.083       .  S
C489        C490   1.205       .  T
C491        C492   1.205       .  T
C493        C494   1.402       .  A
C493        C498   1.394       .  A
C493        H499   1.083       .  S
C494        C495   1.404       .  A
C495        C496   1.393       .  A
C495        H500   1.083       .  S
C496        C497   1.403       .  A
C496        H501   1.083       .  S
C497        C498   1.401       .  A
C498        H502   1.078       .  S
C503        C504   1.402       .  A
C503        C508   1.395   1_655  A
C503        H509   1.083       .  S
C504        C505   1.403       .  A
C505        C506   1.392   1_655  A
C505        H510   1.083       .  S
C506        C507   1.403       .  A
C506        H511   1.083       .  S
C507        C508   1.403       .  A
C508        H512   1.083       .  S
C513        C514   1.536       .  S
C513        C519   1.527       .  S
C513        C517   1.529       .  S
C513       C1003   1.467       .  S
C514        H521   1.086       .  S
C514        C515   1.370       .  D
C515        C516   1.533       .  S
C515       C1002   1.440       .  S
C516        C520   1.534       .  S
C516        C518   1.540       .  S
C516        H522   1.110       .  S
C517        H523   1.086       .  S
C517        C518   1.367       .  D
C518       C1016   1.482       .  S
C519        H524   1.087       .  S
C519        C520   1.364       .  D
C520       C1006   1.473       .  S
C525        C526   1.527       .  S
C525        C531   1.539       .  S
C525        C529   1.530       .  S
C525        C987   1.470       .  S
C526        H533   1.087       .  S
C526        C527   1.363       .  D
C527        C528   1.534       .  S
C527        C992   1.472       .  S
C528        C532   1.535       .  S
C528        C530   1.540       .  S
C528        H534   1.110       .  S
C529        H535   1.086       .  S
C529        C530   1.369       .  D
C530       C1019   1.484       .  S
C531        H536   1.086       .  S
C531        C532   1.371       .  D
C532        C990   1.444       .  S
C537        C538   1.522       .  S
C537        C543   1.538       .  S
C537        C541   1.529       .  S
C537        C975   1.467       .  S
C538        H545   1.087       .  S
C538        C539   1.361       .  D
C539        C540   1.537       .  S
C539       C1009   1.472       .  S
C540        C544   1.535       .  S
C540        C542   1.543       .  S
C540        H546   1.110       .  S
C541        H547   1.086       .  S
C541        C542   1.370       .  D
C542        C978   1.488       .  S
C543        H548   1.086       .  S
C543        C544   1.370       .  D
C544        C973   1.441       .  S
C549        C550   1.536       .  S
C549        C555   1.522       .  S
C549        C553   1.524       .  S
C549        C970   1.465       .  S
C550        H557   1.086       .  S
C550        C551   1.371       .  D
C551        C552   1.541       .  S
C551        C971   1.446       .  S
C552        C556   1.542       .  S
C552        C554   1.546       .  S
C552        H558   1.109       .  S
C553        H559   1.086       .  S
C553        C554   1.367       .  D
C554        C981   1.489       .  S
C555        H560   1.087       .  S
C555        C556   1.361       .  D
C556        C995   1.475       .  S
C561        C562   1.533       .  S
C561        C567   1.524       .  S
C561        C565   1.526       .  S
C561        C945   1.459       .  S
C562        H569   1.086       .  S
C562        C563   1.367       .  D
C563        C564   1.534       .  S
C563        C947   1.434       .  S
C564        C568   1.538       .  S
C564        C566   1.545       .  S
C564        H570   1.109       .  S
C565        H571   1.085       .  S
C565        C566   1.369       .  D
C566        C950   1.489       .  S
C567        H572   1.087       .  S
C567        C568   1.361       .  D
C568        C960   1.473       .  S
C573        C574   1.525       .  S
C573        C579   1.538       .  S
C573        C577   1.525       .  S
C573        C932   1.466       .  S
C574        H581   1.087       .  S
C574        C575   1.363       .  D
C575        C576   1.538       .  S
C575        C963   1.476       .  S
C576        C580   1.534       .  S
C576        C578   1.543       .  S
C576        H582   1.109       .  S
C577        H583   1.086       .  S
C577        C578   1.366       .  D
C578        C936   1.484       .  S
C579        H584   1.086       .  S
C579        C580   1.371       .  D
C580        C934   1.442       .  S
C585        C586   1.533       .  S
C585        C591   1.527       .  S
C585        C589   1.527       .  S
C585        C918   1.461       .  S
C586        H593   1.086       .  S
C586        C587   1.367       .  D
C587        C588   1.532       .  S
C587        C919   1.435       .  S
C588        C592   1.535       .  S
C588        C590   1.542       .  S
C588        H594   1.109       .  S
C589        H595   1.085       .  S
C589        C590   1.369       .  D
C590        C939   1.485       .  S
C591        H596   1.087       .  S
C591        C592   1.363       .  D
C592        C922   1.474       .  S
C597        C598   1.523       .  S
C597        C603   1.539       .  S
C597        C601   1.527       .  S
C597        C913   1.468       .  S
C598        H605   1.087       .  S
C598        C599   1.361       .  D
C599        C600   1.538       .  S
C599        C925   1.472       .  S
C600        C604   1.536       .  S
C600        C602   1.545       .  S
C600        H606   1.109       .  S
C601        H607   1.085       .  S
C601        C602   1.369       .  D
C602        C953   1.490       .  S
C603        H608   1.086       .  S
C603        C604   1.371       .  D
C604        C915   1.444       .  S
In609       O611   2.247       .  S
In609       O612   2.273       .  S
In609       O620   2.289       .  S
In609       O614   2.256       .  S
In609       O616   2.257       .  S
In609       O617   2.277       .  S
In609       O618   2.242       .  S
In609       O621   2.228       .  S
C610        O616   1.262       .  A
C610        O618   1.259       .  A
C610        C974   1.435       .  S
O611        C619   1.258       .  A
O612        C619   1.262       .  A
C613        C905   1.485       .  S
C613        O620   1.262       .  A
C613        O614   1.257       .  A
C615        C902   1.479       .  S
C615        O617   1.264       .  A
C615        O621   1.258       .  A
C619        C909   1.479       .  S
In622       O624   2.266       .  S
In622       O625   2.264       .  S
In622       O633   2.254       .  S
In622       O627   2.283       .  S
In622       O629   2.265       .  S
In622       O630   2.264       .  S
In622       O631   2.244       .  S
In622       O634   2.245       .  S
C623        O629   1.261       .  A
C623        O631   1.257       .  A
C623        C972   1.439       .  S
O624        C632   1.258       .  A
O625        C632   1.256       .  A
C626        C897   1.482       .  S
C626        O633   1.258       .  A
C626        O627   1.261       .  A
C628        C910   1.482   1_455  S
C628        O630   1.263       .  A
C628        O634   1.262       .  A
C632        C893   1.477       .  S
In635       O637   2.220       .  S
In635       O638   2.271       .  S
In635       O646   2.267       .  S
In635       O640   2.257       .  S
In635       O642   2.255       .  S
In635       O643   2.264       .  S
In635       O647   2.249       .  S
C636        O644   1.258       .  A
C636        C969   1.434       .  S
O637        C645   1.260       .  A
O638        C645   1.264       .  A
C639        C898   1.484       .  S
C639        O646   1.261       .  A
C639        O640   1.261       .  A
C641        C889   1.478       .  S
C641        O643   1.262       .  A
C641        O647   1.259       .  A
C645        C886   1.477       .  S
In648       O650   2.253       .  S
In648       O651   2.255       .  S
In648       O659   2.255       .  S
In648       O653   2.256       .  S
In648       O655   2.263       .  S
In648       O656   2.257       .  S
In648       O660   2.236       .  S
C649        O657   1.256       .  A
C649        C988   1.438       .  S
O650        C658   1.261       .  A
O651        C658   1.261       .  A
C652        C881   1.480       .  S
C652        O659   1.262       .  A
C652        O653   1.263       .  A
C654        C877   1.470       .  S
C654        O656   1.261       .  A
C654        O660   1.259       .  A
C658        C890   1.479       .  S
In661       O663   2.261       .  S
In661       O664   2.267       .  S
In661       O672   2.267       .  S
In661       O666   2.278       .  S
In661       O668   2.271       .  S
In661       O669   2.278       .  S
In661       O673   2.235       .  S
C662        O670   1.257       .  A
C662        C976   1.435       .  S
O663        C671   1.261       .  A
O664        C671   1.262       .  A
C665        C906   1.486       .  S
C665        O672   1.258       .  A
C665        O666   1.261       .  A
C667        C869   1.481       .  S
C667        O669   1.263       .  A
C667        O673   1.257       .  A
C671        C873   1.485       .  S
In674       O676   2.231       .  S
In674       O677   2.265       .  S
In674       O685   2.265       .  S
In674       O679   2.262       .  S
In674       O681   2.255       .  S
In674       O682   2.270       .  S
In674       O686   2.251       .  S
C675        O683   1.259       .  A
C675       C1004   1.436       .  S
O676        C684   1.259       .  A
O677        C684   1.262       .  A
C678        C866   1.484       .  S
C678        O685   1.260       .  A
C678        O679   1.261       .  A
C680        C874   1.483       .  S
C680        O682   1.263       .  A
C680        O686   1.260       .  A
C684        C862   1.476       .  S
In687       O689   2.238       .  S
In687       O690   2.275       .  S
In687       O698   2.253       .  S
In687       O692   2.279       .  S
In687       O694   2.255       .  S
In687       O695   2.249       .  S
In687       O696   2.229       .  S
In687       O699   2.249       .  S
C688        O694   1.265       .  A
C688        O696   1.259       .  A
C688       C1001   1.434       .  S
O689        C697   1.258       .  A
O690        C697   1.261       .  A
C691        C865   1.482       .  S
C691        O698   1.258       .  A
C691        O692   1.262       .  A
C693        C857   1.475       .  S
C693        O695   1.263       .  A
C693        O699   1.260       .  A
C697        C853   1.479       .  S
In700       O702   2.254       .  S
In700       O703   2.247       .  S
In700       O711   2.257       .  S
In700       O705   2.271       .  S
In700       O707   2.255       .  S
In700       O708   2.266       .  S
In700       O709   2.243       .  S
In700       O712   2.236       .  S
C701        O707   1.263       .  A
C701        O709   1.260       .  A
C701        C989   1.439       .  S
O702        C710   1.262       .  A
O703        C710   1.260       .  A
C704        C882   1.479       .  S
C704        O711   1.258       .  A
C704        O705   1.260       .  A
C706        C849   1.476       .  S
C706        O708   1.260       .  A
C706        O712   1.259       .  A
C710        C858   1.475       .  S
In713       O715   2.267       .  S
In713       O716   2.268       .  S
In713       O724   2.263       .  S
In713       O718   2.262       .  S
In713       O720   2.266       .  S
In713       O721   2.272       .  S
In713       O722   2.236       .  S
In713       O725   2.243       .  S
C714        O720   1.262       .  A
C714        O722   1.255       .  A
C714        C914   1.436       .  S
O715        C723   1.263       .  A
O716        C723   1.262       .  A
C717        C842   1.485       .  S
C717        O724   1.263       .  A
C717        O718   1.263       .  A
C719        C901   1.473       .  S
C719        O721   1.259       .  A
C719        O725   1.256       .  A
C723        C845   1.491       .  S
In726       O728   2.246       .  S
In726       O729   2.275       .  S
In726       O737   2.263       .  S
In726       O731   2.249       .  S
In726       O733   2.253       .  S
In726       O734   2.299       .  S
In726       O735   2.230       .  S
In726       O738   2.247       .  S
C727        O733   1.261       .  A
C727        O735   1.255       .  A
C727        C917   1.429       .  S
O728        C736   1.257       .  A
O729        C736   1.260       .  A
C730        C837   1.483       .  S
C730        O737   1.267       .  A
C730        O731   1.262       .  A
C732        C846   1.488       .  S
C732        O734   1.265       .  A
C732        O738   1.257       .  A
C736        C854   1.475       .  S
In739       O741   2.219       .  S
In739       O742   2.277       .  S
In739       O750   2.272       .  S
In739       O744   2.234       .  S
In739       O746   2.244       .  S
In739       O747   2.265       .  S
In739       O751   2.231       .  S
C740        O748   1.256       .  A
C740        C920   1.429       .  S
O741        C749   1.256       .  A
O742        C749   1.263       .  A
C743        C838   1.481       .  S
C743        O750   1.267       .  A
C743        O744   1.259       .  A
C745        C833   1.475       .  S
C745        O747   1.265       .  A
C745        O751   1.258       .  A
C749        C861   1.470       .  S
In752       O754   2.251       .  S
In752       O755   2.255       .  S
In752       O763   2.261       .  S
In752       O757   2.283       .  S
In752       O759   2.257       .  S
In752       O760   2.266       .  S
In752       O764   2.235       .  S
C753        O761   1.260       .  A
C753        C933   1.436       .  S
O754        C762   1.263       .  A
O755        C762   1.260       .  A
C756        C829   1.485       .  S
C756        O763   1.258       .  A
C756        O757   1.261       .  A
C758        C878   1.476       .  S
C758        O760   1.260       .  A
C758        O764   1.258       .  A
C762        C834   1.478       .  S
In765       O767   2.241       .  S
In765       O768   2.273       .  S
In765       O776   2.258       .  S
In765       O770   2.269       .  S
In765       O772   2.253       .  S
In765       O773   2.273       .  S
In765       O777   2.234       .  S
C766        O774   1.255       .  A
C766        C916   1.439       .  S
O767        C775   1.260       .  A
O768        C775   1.264       .  A
C769        C841   1.484       .  S
C769        O776   1.261       .  A
C769        O770   1.261       .  A
C771        C870   1.480       .  S
C771        O773   1.263       .  A
C771        O777   1.259       .  A
C775        C825   1.479       .  S
In778       O780   2.232       .  S
In778       O781   2.274       .  S
In778       O789   2.260       .  S
In778       O783   2.241       .  S
In778       O785   2.240       .  S
In778       O786   2.276       .  S
In778       O790   2.239       .  S
C779        O787   1.256       .  A
C779        C948   1.428       .  S
O780        C788   1.258       .  A
O781        C788   1.262       .  A
C782        C821   1.478       .  S
C782        O789   1.265       .  A
C782        O783   1.259       .  A
C784        C826   1.483       .  S
C784        O786   1.263       .  A
C784        O790   1.258       .  A
C788        C885   1.473       .  S
In791       O793   2.240       .  S
In791       O794   2.269       .  S
In791       O802   2.266       .  S
In791       O796   2.246       .  S
In791       O798   2.258       .  S
In791       O799   2.272       .  S
In791       O800   2.224       .  S
In791       O803   2.248       .  S
C792        O798   1.259       .  A
C792        O800   1.256       .  A
C792        C946   1.427       .  S
O793        C801   1.256       .  A
O794        C801   1.263       .  A
C795        C822   1.477       .  S
C795        O802   1.263       .  A
C795        O796   1.258       .  A
C797        C817   1.483       .  S
C797        O799   1.262       .  A
C797        O803   1.260       .  A
C801        C894   1.479       .  S
In804       O806   2.238       .  S
In804       O807   2.270       .  S
In804       O815   2.260       .  S
In804       O809   2.262       .  S
In804       O811   2.263       .  S
In804       O812   2.263       .  S
In804       O813   2.230       .  S
In804       O816   2.232       .  S
C805        O811   1.264       .  A
C805        O813   1.256       .  A
C805        C931   1.435       .  S
O806        C814   1.261       .  A
O807        C814   1.265       .  A
C808        C830   1.486       .  S
C808        O815   1.263       .  A
C808        O809   1.264       .  A
C810        C850   1.472       .  S
C810        O812   1.263       .  A
C810        O816   1.258       .  A
C814        C818   1.479       .  S
C817        H819   1.086       .  S
C817        C818   1.346   1_565  D
C818        H820   1.087   1_545  S
C821        H823   1.086       .  S
C821        C822   1.342       .  D
C822        H824   1.086       .  S
C825        H827   1.087       .  S
C825        C826   1.347       .  D
C826        H828   1.086       .  S
C829        H831   1.087       .  S
C829        C830   1.347       .  D
C830        H832   1.086       .  S
C833        H835   1.087       .  S
C833        C834   1.342       .  D
C834        H836   1.086       .  S
C837        H839   1.086       .  S
C837        C838   1.343       .  D
C838        H840   1.086       .  S
C841        H843   1.087       .  S
C841        C842   1.347       .  D
C842        H844   1.086       .  S
C845        H847   1.086       .  S
C845        C846   1.347   1_565  D
C846        H848   1.087   1_545  S
C849        H851   1.086       .  S
C849        C850   1.344       .  D
C850        H852   1.087       .  S
C853        H855   1.086       .  S
C853        C854   1.346       .  D
C854        H856   1.087       .  S
C857        H859   1.087       .  S
C857        C858   1.343   1_655  D
C858        H860   1.087   1_455  S
C862        H864   1.086       .  S
C865        H867   1.087       .  S
C865        C866   1.346       .  D
C866        H868   1.086       .  S
C873        H875   1.086       .  S
C873        C874   1.347       .  D
C874        H876   1.086       .  S
C877        H879   1.087       .  S
C881        H883   1.087       .  S
C881        C882   1.344       .  D
C882        H884   1.087       .  S
C889        H891   1.086       .  S
C889        C890   1.344       .  D
C890        H892   1.086       .  S
C893        H895   1.086       .  S
C893        C894   1.348       .  D
C894        H896   1.086       .  S
C897        H899   1.087       .  S
C897        C898   1.346       .  D
C898        H900   1.086       .  S
C901        H903   1.087       .  S
C901        C902   1.347       .  D
C902        H904   1.086       .  S
C905        H907   1.087       .  S
C905        C906   1.346       .  D
C906        H908   1.086       .  S
C909        H911   1.087       .  S
C909        C910   1.346       .  D
C910        H912   1.086       .  S
C913        C914   1.207       .  T
C915        C916   1.208       .  T
C917        C918   1.202       .  T
C919        C920   1.202       .  T
C921        C922   1.402       .  A
C921        C926   1.392   1_545  A
C921        H927   1.083       .  S
C922        C923   1.402       .  A
C923        C924   1.395   1_545  A
C923        H928   1.078       .  S
C924        C925   1.400       .  A
C924        H929   1.080       .  S
C925        C926   1.403       .  A
C926        H930   1.083       .  S
C931        C932   1.206       .  T
C933        C934   1.206       .  T
C935        C936   1.402       .  A
C935        C940   1.393       .  A
C935        H941   1.077       .  S
C936        C937   1.406       .  A
C937        C938   1.391       .  A
C937        H942   1.082       .  S
C938        C939   1.405       .  A
C938        H943   1.081       .  S
C939        C940   1.404       .  A
C940        H944   1.077       .  S
C945        C946   1.201       .  T
C947        C948   1.201       .  T
C949        C950   1.405       .  A
C949        C954   1.392       .  A
C949        H955   1.082       .  S
C950        C951   1.405       .  A
C951        C952   1.397       .  A
C951        H956   1.078       .  S
C952        C953   1.405       .  A
C952        H957   1.079       .  S
C953        C954   1.406       .  A
C954        H958   1.081       .  S
C959        C960   1.400       .  A
C959        C964   1.395   1_565  A
C959        H965   1.079       .  S
C960        C961   1.404       .  A
C961        C962   1.394   1_565  A
C961        H966   1.083       .  S
C962        C963   1.404       .  A
C962        H967   1.083       .  S
C963        C964   1.401       .  A
C964        H968   1.078       .  S
C969        C970   1.205       .  T
C971        C972   1.208       .  T
C973        C974   1.206       .  T
C975        C976   1.206       .  T
C977        C978   1.404       .  A
C977        C982   1.392   1_655  A
C977        H983   1.082       .  S
C978        C979   1.405       .  A
C979        C980   1.398   1_655  A
C979        H984   1.078       .  S
C980        C981   1.404       .  A
C980        H985   1.078       .  S
C981        C982   1.406       .  A
C982        H986   1.082       .  S
C987        C988   1.208       .  T
C989        C990   1.208       .  T
C991        C992   1.402       .  A
C991        C996   1.394       .  A
C991        H997   1.083       .  S
C992        C993   1.402       .  A
C993        C994   1.396       .  A
C993        H998   1.083       .  S
C994        C995   1.401       .  A
C994        H999   1.078       .  S
C995        C996   1.405       .  A
C996       H1000   1.083       .  S
C1001      C1002   1.205       .  T
C1003      C1004   1.206       .  T
C1005      C1006   1.403       .  A
C1005      C1010   1.394       .  A
C1005      H1011   1.083       .  S
C1006      C1007   1.403       .  A
C1007      C1008   1.392       .  A
C1007      H1012   1.083       .  S
C1008      C1009   1.404       .  A
C1008      H1013   1.083       .  S
C1009      C1010   1.400       .  A
C1010      H1014   1.079       .  S
C1015      C1016   1.403       .  A
C1015      C1020   1.397   1_655  A
C1015      H1021   1.082       .  S
C1016      C1017   1.405       .  A
C1017      C1018   1.393   1_655  A
C1017      H1022   1.082       .  S
C1018      C1019   1.405       .  A
C1018      H1023   1.082       .  S
C1019      C1020   1.405       .  A
C1020      H1024   1.081       .  S
