geometry optimzed in LAMMPS
_audit_creation_date              2020-11-30 
_audit_creation_method            'lammps2cif' 
_symmetry_space_group_name_H-M    'P1' 
_symmetry_Int_Tables_number       1 
_symmetry_cell_setting            triclinic 
loop_ 
_symmetry_equiv_pos_as_xyz 
  x,y,z 
_cell_length_a                    38.90547936 
_cell_length_b                    39.235928512355166 
_cell_length_c                    31.37776356915618 
_cell_angle_alpha                 89.69628928094974 
_cell_angle_beta                  92.06461511644504 
_cell_angle_gamma                 120.41125274484932 
loop_ 
_atom_site_label 
_atom_site_type_symbol 
_atom_site_fract_x 
_atom_site_fract_y 
_atom_site_fract_z 
_atom_site_charge 
C1          C  0.36524360  0.25357883  0.45714122     0.86100
C2          C  0.35819494  0.28838564  0.46156344    -0.54200
C3          C  0.37663291  0.31192856  0.99685123     0.09000
C4          C  0.40057233  0.29805683  0.02533372     0.20000
C5          C  0.41075587  0.27444930  0.45872555    -0.54900
C6          C  0.42982769  0.29594466  0.99496753     0.09100
C7          C  0.35220933  0.23164884  0.49915558    -0.54400
C8          C  0.36949616  0.25462212  0.03476970     0.09700
H9          H  0.33779851  0.29210550  0.44111980     0.14200
H10         H  0.41496359  0.31653545  0.05445313    -0.00100
H11         H  0.42675945  0.27387959  0.43141607     0.14500
H12         H  0.32992859  0.20040648  0.00058777     0.14300
C13         C  0.03719375  0.32092120  0.47736169     0.86100
C14         C  0.49181596  0.29757456  0.47758135    -0.54200
C15         C  0.47417950  0.31324294  0.00097374     0.09000
C16         C  0.00518562  0.34985974  0.02787901     0.20000
C17         C  0.04940879  0.36345314  0.46988206    -0.54900
C18         C  0.03224923  0.37974120  0.99378411     0.09100
C19         C  0.04879252  0.32058284  0.52365421    -0.54400
C20         C  0.03214201  0.33503612  0.05082974     0.09700
H21         H  0.47492346  0.26913509  0.46129720     0.14200
H22         H  0.49122839  0.36144052  0.04917157    -0.00100
H23         H  0.07114856  0.37915140  0.44606879     0.14500
H24         H  0.06586401  0.30713715  0.03486408     0.14300
C25         C  0.07873408  0.47401183  0.43316145     0.86100
C26         C  0.05240981  0.43076727  0.43977727    -0.54200
C27         C  0.03767246  0.41970430  0.97979783     0.09000
C28         C  0.04575500  0.45716710  0.00763360     0.20000
C29         C  0.04817273  0.48661052  0.43848069    -0.54900
C30         C  0.03514945  0.48427856  0.97922529     0.09100
C31         C  0.10806477  0.49076014  0.47263562    -0.54400
C32         C  0.09139784  0.48193505  0.01188846     0.09700
H33         H  0.04770634  0.41020674  0.41412781     0.14200
H34         H  0.02919929  0.44949162  0.03725993    -0.00100
H35         H  0.04116447  0.00151862  0.41372423     0.14500
H36         H  0.14004871  0.00789954  0.96895031     0.14300
C37         C  0.04651317  0.08692622  0.47139450     0.86100
C38         C  0.05719799  0.05507962  0.46933652    -0.54200
C39         C  0.03614979  0.02230861  0.99369485     0.09000
C40         C  0.00981091  0.02924054  0.02551125     0.20000
C41         C  0.50130488  0.06732308  0.46943805    -0.54900
C42         C  0.48100891  0.03605292  0.99560369     0.09100
C43         C  0.05760196  0.10124987  0.01723186    -0.54400
C44         C  0.03877808  0.07184638  0.04644681     0.09700
H45         H  0.07972211  0.05839155  0.44747176     0.14200
H46         H  0.49436817  0.50504567  0.04853744    -0.00100
H47         H  0.48704715  0.07896296  0.44850927     0.14500
H48         H  0.07727518  0.13195142  0.02657465     0.14300
C49         C  0.37152231  0.49021960  0.45299467     0.86100
C50         C  0.41689096  0.01428338  0.45407844    -0.54200
C51         C  0.43600344  0.51201844  0.99075882     0.09000
C52         C  0.40620692  0.48330420  0.02329204     0.20000
C53         C  0.36280040  0.44816646  0.46060646    -0.54900
C54         C  0.38039377  0.44400070  0.99724130     0.09100
C55         C  0.35890508  0.50111272  0.49384728    -0.54400
C56         C  0.37734578  0.49915443  0.03097540     0.09700
H57         H  0.43206221  0.03072088  0.42624585     0.14200
H58         H  0.42124179  0.48028177  0.05242701    -0.00100
H59         H  0.34285042  0.42315857  0.44055086     0.14500
H60         H  0.33637476  0.00969539  0.99286322     0.14300
C61         C  0.31675036  0.34819363  0.05234734     0.86100
C62         C  0.34222856  0.32902150  0.04797254    -0.54200
C63         C  0.36388708  0.33915559  0.51228542     0.09000
C64         C  0.35843436  0.36863754  0.48381457     0.20000
C65         C  0.34521368  0.39251364  0.04898700    -0.54900
C66         C  0.36714687  0.40387257  0.51345331     0.09100
C67         C  0.29163430  0.33614243  0.51014251    -0.54400
C68         C  0.31320181  0.34811396  0.47411664     0.09700
H69         H  0.33825892  0.30427720  0.06697827     0.14200
H70         H  0.37670836  0.37768272  0.45505903    -0.00100
H71         H  0.34202818  0.41316773  0.06862767     0.14500
H72         H  0.25926030  0.31945641  0.50882054     0.14300
Fe73       Fe  0.16810630  0.23098548  0.25615733     1.65800
Fe74       Fe  0.07723119  0.22439160  0.25667722     1.73200
Fe75       Fe  0.16201913  0.31534148  0.25851898     1.54400
O76         O  0.20460205  0.32249533  0.30280199    -0.82100
O77         O  0.06762120  0.25870734  0.21323981    -0.80400
O78         O  0.21157840  0.26992649  0.29979822    -0.84600
O79         O  0.20005591  0.26453607  0.20619375    -0.79400
O80         O  0.13036018  0.31516876  0.30997396    -0.81200
O81         O  0.07279576  0.18780055  0.20681201    -0.84000
C82         C  0.20987491  0.29888484  0.19305230     0.96800
C83         C  0.22063053  0.30317725  0.31570276     1.04200
O84         O  0.13587206  0.25702153  0.25638404    -1.12900
O85         O  0.07859265  0.18684560  0.30151997    -0.75400
O86         O  0.14065044  0.19786023  0.30824585    -0.78900
O87         O  0.19771346  0.32058129  0.20880594    -0.79600
C88         C  0.10551829  0.18300982  0.32090690     0.95700
O89         O  0.12891245  0.18610999  0.21252074    -0.77500
O90         O  0.07498954  0.25589110  0.30714745    -0.82700
C91         C  0.08696792  0.29436686  0.20138282     0.98300
C92         C  0.09748645  0.28932656  0.32479494     1.04200
O93         O  0.12227644  0.31787377  0.21516366    -0.78300
C94         C  0.09408579  0.17349284  0.19573837     1.02500
Fe95       Fe  0.32923959  0.10417707  0.24254346     1.65800
Fe96       Fe  0.24250996  0.01489134  0.23169881     1.73200
Fe97       Fe  0.24010481  0.10156054  0.23540199     1.54400
O98         O  0.26888292  0.13414529  0.29084682    -0.82100
O99         O  0.20527922  0.01332018  0.18158155    -0.80400
O100        O  0.32845274  0.13960484  0.28972833    -0.84600
O101        O  0.33531935  0.14417323  0.19642292    -0.79400
O102        O  0.19575433  0.06090401  0.27358316    -0.81200
O103        O  0.28102150  0.01527188  0.18672414    -0.84000
C104        C  0.31443946  0.15893743  0.18378253     0.96800
C105        C  0.30402608  0.14731787  0.30657493     1.04200
O106        O  0.27053812  0.07344417  0.23638873    -1.12900
O107        O  0.27574353  0.00909111  0.28166418    -0.75400
O108        O  0.33053523  0.06816081  0.28978192    -0.78900
O109        O  0.27966509  0.14675986  0.19698771    -0.79600
C110        C  0.30863350  0.03257978  0.30107287     0.95700
O111        O  0.33768859  0.07292727  0.19584601    -0.77500
O112        O  0.20083812  0.00700395  0.27616181    -0.82700
C113        C  0.19619594  0.03747881  0.16481387     0.98300
C114        C  0.18493735  0.02671726  0.28777600     1.04200
O115        O  0.20838332  0.07184919  0.18014152    -0.78300
C116        C  0.31678160  0.03971520  0.17725029     1.02500
C117        C  0.23812974  0.31461445  0.15871754    -0.00600
C118        C  0.27313898  0.31289097  0.16322923    -0.12400
C119        C  0.30051998  0.32580427  0.13089001     0.01700
C120        C  0.29147091  0.33823198  0.09162219    -0.00600
C121        C  0.25824182  0.34371991  0.08944709    -0.12400
C122        C  0.23140441  0.33162556  0.12226400     0.01600
H123        H  0.27948775  0.30212276  0.19268378     0.14500
H124        H  0.25256763  0.35673499  0.06151175     0.14500
C125        C  0.19626208  0.33510505  0.11688064     0.36200
C126        C  0.33835305  0.32847225  0.14079706     0.36100
N127        N  0.16800659  0.33771288  0.11267619    -0.44200
N128        N  0.36859613  0.33053117  0.14906472    -0.44100
C129        C  0.29382191  0.34305555  0.43078687    -0.00600
C130        C  0.30710696  0.33130538  0.39566409    -0.12400
C131        C  0.28392503  0.31797168  0.35750976     0.01700
C132        C  0.24849301  0.31931898  0.35313684    -0.00600
C133        C  0.23859501  0.33666180  0.38586453    -0.12400
C134        C  0.26085224  0.34863263  0.42426107     0.01600
H135        H  0.33514533  0.33196082  0.39775715     0.14500
H136        H  0.21251156  0.33980450  0.38198410     0.14500
C137        C  0.25033456  0.36851420  0.45536465     0.36200
C138        C  0.29739674  0.30389400  0.32312325     0.36100
N139        N  0.24198843  0.38478217  0.47991147    -0.44200
N140        N  0.30806380  0.29262155  0.29541842    -0.44100
C141        C  0.32226449  0.01924393  0.33939546    -0.00600
C142        C  0.34699765  0.04806963  0.36985423    -0.12400
C143        C  0.36213157  0.03879427  0.40618543     0.01700
C144        C  0.35327975  0.99937808  0.41324517    -0.00600
C145        C  0.32749667  0.47006208  0.38310520    -0.12400
C146        C  0.31180591  0.47956781  0.34676902     0.01600
H147        H  0.35416993  0.07833656  0.36568177     0.14500
H148        H  0.31911938  0.43954021  0.38722309     0.14500
C149        C  0.28557483  0.44798310  0.31749739     0.36200
C150        C  0.38647788  0.07081848  0.43600433     0.36100
N151        N  0.26438583  0.42244374  0.29434686    -0.44200
N152        N  0.40568393  0.09636084  0.46001712    -0.44100
C153        C  0.36871867  0.01278217  0.07228822    -0.00600
C154        C  0.35924853  0.04312804  0.06975027    -0.12400
C155        C  0.34258051  0.05206230  0.10354354     0.01700
C156        C  0.33479266  0.03066002  0.14149311    -0.00600
C157        C  0.34761753  0.50316877  0.14622495    -0.12400
C158        C  0.36565366  0.49500184  0.11260693     0.01600
H159        H  0.36436174  0.05990669  0.04076111     0.14500
H160        H  0.34427569  0.48867709  0.17659617     0.14500
C161        C  0.38202598  0.46997585  0.12189403     0.36200
C162        C  0.33309373  0.08303946  0.09823464     0.36100
N163        N  0.39545835  0.45032552  0.13077829    -0.44200
N164        N  0.32578183  0.10804288  0.09412194    -0.43700
C165        C  0.07704344  0.14101111  0.16182449    -0.00600
C166        C  0.03941846  0.12961981  0.14216398    -0.12400
C167        C  0.02360258  0.10251059  0.10765812     0.01700
C168        C  0.04469808  0.08489958  0.09215359    -0.00600
C169        C  0.08081546  0.09392343  0.11342310    -0.12400
C170        C  0.09708184  0.12149072  0.14767072     0.01600
H171        H  0.02293884  0.14347990  0.15219202     0.14500
H172        H  0.09809848  0.08179494  0.10090546     0.14500
C173        C  0.13535968  0.13029917  0.16585608     0.36200
C174        C  0.48773374  0.09660437  0.08555274     0.36100
N175        N  0.16611301  0.13719614  0.18010651    -0.44200
N176        N  0.45932542  0.09236707  0.06753085    -0.44100
C177        C  0.06366297  0.11357895  0.43293324    -0.00600
C178        C  0.09399140  0.15344654  0.43699375    -0.12400
C179        C  0.10954759  0.17651460  0.40057917     0.01700
C180        C  0.09458239  0.15963110  0.35963538    -0.00600
C181        C  0.06506008  0.12022381  0.35535255    -0.12400
C182        C  0.04975011  0.09705848  0.39097139     0.01600
H183        H  0.10568001  0.16678937  0.46814481     0.14500
H184        H  0.05348548  0.10756014  0.32373753     0.14500
C185        C  0.01892207  0.05639677  0.38270492     0.36200
C186        C  0.13959359  0.21771722  0.40595680     0.36100
N187        N  0.99397092  0.02412896  0.37546455    -0.44200
N188        N  0.16359788  0.25074979  0.41041221    -0.44100
C189        C  0.11626504  0.49677708  0.05300776    -0.00600
C190        C  0.15339536  0.03235997  0.05244176    -0.12400
C191        C  0.17972253  0.04612164  0.08822468     0.01700
C192        C  0.16938134  0.02447835  0.12618579    -0.00600
C193        C  0.13217921  0.48984513  0.12771938    -0.12400
C194        C  0.10530837  0.47636715  0.09228266     0.01600
H195        H  0.16223446  0.04996397  0.02390298     0.14500
H196        H  0.12367613  0.47361037  0.15728857     0.14500
C197        C  0.06673022  0.44233263  0.09885903     0.36200
C198        C  0.21796703  0.08157834  0.08430859     0.36100
N199        N  0.03579367  0.41565192  0.10615721    -0.44200
N200        N  0.24858984  0.10988479  0.08042518    -0.44100
C201        C  0.10235555  0.48393775  0.39166563    -0.00600
C202        C  0.09944100  0.00802406  0.35976512    -0.12400
C203        C  0.12473331  0.02106915  0.32499151     0.01700
C204        C  0.15389519  0.00997445  0.32080887    -0.00600
C205        C  0.15542437  0.98427642  0.35099440    -0.12400
C206        C  0.13080809  0.47174390  0.38609165     0.01600
H207        H  0.07854054  0.01825224  0.36182281     0.14500
H208        H  0.17771640  0.47557409  0.34855453     0.14500
C209        C  0.13838512  0.44917624  0.41771519     0.36200
C210        C  0.11980966  0.04583706  0.29406715     0.36100
N211        N  0.14583244  0.43214228  0.44311790    -0.44200
N212        N  0.11564881  0.06565411  0.26944468    -0.44100
C213        C  0.08355788  0.29795957  0.36392502    -0.00600
C214        C  0.10776313  0.31037495  0.40148833    -0.12400
C215        C  0.09322748  0.31577750  0.43983107     0.01700
C216        C  0.05318836  0.30731101  0.44116329    -0.00600
C217        C  0.03045204  0.29681930  0.40212711    -0.12400
C218        C  0.04482561  0.29162865  0.36445284     0.01600
H219        H  0.13804550  0.31597540  0.40081283     0.14500
H220        H  0.00168003  0.29485507  0.39973519     0.14500
C221        C  0.01992669  0.28220532  0.32591844     0.36200
C222        C  0.12083787  0.33222901  0.47606841     0.36100
N223        N  0.00016003  0.27483026  0.29501675    -0.44200
N224        N  0.14331649  0.34577214  0.00483263    -0.44100
C225        C  0.06778203  0.30831205  0.16908362    -0.00600
C226        C  0.03188250  0.28003480  0.14835946    -0.12400
C227        C  0.01649953  0.28955351  0.11224361     0.01700
C228        C  0.03611745  0.32859333  0.09682227    -0.00600
C229        C  0.07004795  0.35758236  0.11951657    -0.12400
C230        C  0.08558650  0.34815998  0.15575435     0.01600
H231        H  0.01739550  0.24940681  0.15800353     0.14500
H232        H  0.08697314  0.38687747  0.10644871     0.14500
C233        C  0.12081882  0.37991927  0.17695048     0.36200
C234        C  0.98488726  0.25726736  0.08742153     0.36100
N235        N  0.14893547  0.40563351  0.19377928    -0.44200
N236        N  0.96035682  0.23103634  0.56717574    -0.44100
C237        C  0.31780091  0.17257993  0.34617639    -0.00600
C238        C  0.29522512  0.18828047  0.36225405    -0.12400
C239        C  0.30860182  0.21348601  0.39854645     0.01700
C240        C  0.34628973  0.22491013  0.41861079    -0.00600
C241        C  0.36589128  0.20514105  0.40525181    -0.12400
C242        C  0.35326247  0.18077548  0.36918218     0.01600
H243        H  0.26687530  0.18071349  0.34664138     0.14500
H244        H  0.39191651  0.20870977  0.42308117     0.14500
C245        C  0.37828988  0.16523637  0.35713790     0.36200
C246        C  0.28150225  0.22422189  0.41594806     0.36100
N247        N  0.39904651  0.15365703  0.34754557    -0.44200
N248        N  0.25931223  0.23223847  0.42991980    -0.44100
C249        C  0.35649323  0.23823764  0.07782917    -0.00600
C250        C  0.38423214  0.23806027  0.10722574    -0.12400
C251        C  0.37166891  0.21385666  0.14316183     0.01700
C252        C  0.33037144  0.19023127  0.15077741    -0.00600
C253        C  0.30321107  0.19489815  0.12420079    -0.12400
C254        C  0.31580953  0.21822328  0.08778877     0.01600
H255        H  0.41560103  0.25540079  0.10095568     0.14500
H256        H  0.27164956  0.17856344  0.13042193     0.14500
C257        C  0.28633328  0.22085900  0.06089159     0.36200
C258        C  0.40187743  0.21376314  0.17120086     0.36100
N259        N  0.26280382  0.22329674  0.53960905    -0.44200
N260        N  0.42626202  0.21386191  0.19353635    -0.44100
C261        C  0.36522915  0.25356427  0.95711960     0.86100
C262        C  0.35817850  0.28837051  0.96153668    -0.54200
C263        C  0.37666283  0.31194743  0.49687272     0.09000
C264        C  0.40060148  0.29807239  0.52534997     0.20000
C265        C  0.41074137  0.27443565  0.95871428    -0.54900
C266        C  0.42984727  0.29595794  0.49497605     0.09100
C267        C  0.35218798  0.23163291  0.99913270    -0.54400
C268        C  0.36952555  0.25463866  0.53479023     0.09700
H269        H  0.33778974  0.29209372  0.94108422     0.14200
H270        H  0.41499952  0.31655148  0.55446773    -0.00100
H271        H  0.42674809  0.27386547  0.93140833     0.14500
H272        H  0.32994784  0.20042329  0.50061369     0.14300
C273        C  0.03718635  0.32091531  0.97736280     0.86100
C274        C  0.49180247  0.29756715  0.97757487    -0.54200
C275        C  0.47419614  0.31325721  0.50097407     0.09000
C276        C  0.00519816  0.34987824  0.52786712     0.20000
C277        C  0.04940442  0.36345062  0.96989898    -0.54900
C278        C  0.03225717  0.37974932  0.49376426     0.09100
C279        C  0.04877955  0.32056201  0.02365459    -0.54400
C280        C  0.03215528  0.33506159  0.55082323     0.09700
H281        H  0.47491148  0.26912927  0.96128792     0.14200
H282        H  0.49124595  0.36147236  0.54914976    -0.00100
H283        H  0.07114347  0.37915432  0.94608701     0.14500
H284        H  0.06586470  0.30714798  0.53487224     0.14300
C285        C  0.07870451  0.47399286  0.93316013     0.86100
C286        C  0.05237814  0.43074887  0.93978607    -0.54200
C287        C  0.03769132  0.41971557  0.47978239     0.09000
C288        C  0.04576088  0.45717064  0.50762272     0.20000
C289        C  0.04814967  0.48659858  0.93848867    -0.54900
C290        C  0.03515999  0.48428277  0.47921235     0.09100
C291        C  0.10804685  0.49074705  0.97262402    -0.54400
C292        C  0.09140291  0.48194244  0.51189548     0.09700
H293        H  0.04766841  0.41018282  0.91414020     0.14200
H294        H  0.02919171  0.44948602  0.53723928    -0.00100
H295        H  0.04118709  0.00152288  0.91372198     0.14500
H296        H  0.14002270  0.00787840  0.46892828     0.14300
C297        C  0.04652017  0.08692752  0.97140022     0.86100
C298        C  0.05720270  0.05508063  0.96933520    -0.54200
C299        C  0.03614202  0.02230807  0.49369680     0.09000
C300        C  0.00979866  0.02923981  0.52550481     0.20000
C301        C  0.50131337  0.06732720  0.96945256    -0.54900
C302        C  0.48099707  0.03605065  0.49559100     0.09100
C303        C  0.05758677  0.10124918  0.51722657    -0.54400
C304        C  0.03876271  0.07184541  0.54644039     0.09700
H305        H  0.07972706  0.05839584  0.94746889     0.14200
H306        H  0.49437406  0.50503934  0.54852619    -0.00100
H307        H  0.48705220  0.07896921  0.94853157     0.14500
H308        H  0.07726216  0.13194984  0.52657095     0.14300
C309        C  0.37153264  0.49022154  0.95298560     0.86100
C310        C  0.41690502  0.01428510  0.95408938    -0.54200
C311        C  0.43599531  0.51200898  0.49076089     0.09000
C312        C  0.40619914  0.48330926  0.52330319     0.20000
C313        C  0.36282433  0.44817114  0.96058385    -0.54900
C314        C  0.38037568  0.44400201  0.49726223     0.09100
C315        C  0.35890065  0.50109313  0.99384116    -0.54400
C316        C  0.37734773  0.49917250  0.53098322     0.09700
H317        H  0.43207964  0.03071192  0.92625284     0.14200
H318        H  0.42123424  0.48028903  0.55243962    -0.00100
H319        H  0.34287929  0.42316729  0.94052196     0.14500
H320        H  0.33634180  0.00964608  0.49286169     0.14300
C321        C  0.31678948  0.34819203  0.55238942     0.86100
C322        C  0.34229489  0.32905212  0.54801139    -0.54200
C323        C  0.36383632  0.33912449  0.01225640     0.09000
C324        C  0.35841696  0.36862858  0.98378834     0.20000
C325        C  0.34522303  0.39251535  0.54901309    -0.54900
C326        C  0.36714737  0.40386626  0.01343256     0.09100
C327        C  0.29160914  0.33616907  0.01009346    -0.54400
C328        C  0.31318819  0.34813585  0.97407801     0.09700
H329        H  0.33833086  0.30430093  0.56699769     0.14200
H330        H  0.37669651  0.37766650  0.95503698    -0.00100
H331        H  0.34202350  0.41316304  0.56864912     0.14500
H332        H  0.25923529  0.31949199  0.00875330     0.14300
Fe333      Fe  0.16808806  0.23097938  0.75616241     1.65800
Fe334      Fe  0.07721055  0.22437679  0.75666423     1.73200
Fe335      Fe  0.16199372  0.31533150  0.75849049     1.54400
O336        O  0.20457975  0.32250359  0.80277481    -0.82100
O337        O  0.06759238  0.25868641  0.71322507    -0.80400
O338        O  0.21154249  0.26992498  0.79980852    -0.84600
O339        O  0.20004786  0.26452739  0.70620565    -0.79400
O340        O  0.13033323  0.31516455  0.80994232    -0.81200
O341        O  0.07278764  0.18779107  0.70679909    -0.84000
C342        C  0.20986568  0.29887167  0.69305087     0.96800
C343        C  0.22060149  0.30318463  0.81569233     1.04200
O344        O  0.13585075  0.25701122  0.75637170    -1.12900
O345        O  0.07856740  0.18682812  0.80150633    -0.75400
O346        O  0.14062753  0.19785447  0.80824630    -0.78900
O347        O  0.19769271  0.32056591  0.70878479    -0.79600
C348        C  0.10549316  0.18299778  0.82089997     0.95700
O349        O  0.12890697  0.18610512  0.71252173    -0.77500
O350        O  0.07497202  0.25587835  0.80713710    -0.82700
C351        C  0.08693929  0.29434232  0.70135771     0.98300
C352        C  0.09746712  0.28931941  0.82477610     1.04200
O353        O  0.12225060  0.31784987  0.71512814    -0.78300
C354        C  0.09408383  0.17348827  0.69573049     1.02500
Fe355      Fe  0.32924568  0.10416045  0.74253167     1.65800
Fe356      Fe  0.24252104  0.01487079  0.73168808     1.73200
Fe357      Fe  0.24010876  0.10153483  0.73537262     1.54400
O358        O  0.26887020  0.13411169  0.79082813    -0.82100
O359        O  0.20528372  0.01329025  0.68156841    -0.80400
O360        O  0.32845154  0.13959876  0.78969946    -0.84600
O361        O  0.33532454  0.14414300  0.69639761    -0.79400
O362        O  0.19574940  0.06087255  0.77354001    -0.81200
O363        O  0.28103235  0.01525305  0.68671388    -0.84000
C364        C  0.31445209  0.15891859  0.68376924     0.96800
C365        C  0.30401776  0.14729884  0.80655097     1.04200
O366        O  0.27054544  0.07342303  0.73637035    -1.12900
O367        O  0.27576184  0.00908076  0.78165419    -0.75400
O368        O  0.33053938  0.06815879  0.78978433    -0.78900
O369        O  0.27967944  0.14674530  0.69697697    -0.79600
C370        C  0.30864461  0.03257618  0.80107189     0.95700
O371        O  0.33770530  0.07290089  0.69585468    -0.77500
O372        O  0.20085392  0.00698601  0.77615694    -0.82700
C373        C  0.19621130  0.03745117  0.66478363     0.98300
C374        C  0.18494493  0.02669609  0.78775571     1.04200
O375        O  0.20840645  0.07182747  0.68009990    -0.78300
C376        C  0.31679763  0.03969166  0.67725350     1.02500
C377        C  0.23813774  0.31459869  0.65872995    -0.00600
C378        C  0.27309934  0.31278646  0.66322599    -0.12400
C379        C  0.30050042  0.32570445  0.63090765     0.01700
C380        C  0.29151440  0.33822713  0.59166725    -0.00600
C381        C  0.25833552  0.34379381  0.58951047    -0.12400
C382        C  0.23148386  0.33170164  0.62231268     0.01600
H383        H  0.27940071  0.30195166  0.69265879     0.14500
H384        H  0.25271028  0.35686465  0.56159291     0.14500
C385        C  0.19640084  0.33528401  0.61694855     0.36200
C386        C  0.33829762  0.32829880  0.64082976     0.36100
N387        N  0.16819438  0.33797805  0.61276070    -0.44200
N388        N  0.36851023  0.33029782  0.64911702    -0.44100
C389        C  0.29381844  0.34309247  0.93074805    -0.00600
C390        C  0.30708156  0.33130804  0.89563613    -0.12400
C391        C  0.28388921  0.31796500  0.85749119     0.01700
C392        C  0.24847325  0.31934095  0.85311461    -0.00600
C393        C  0.23860136  0.33672102  0.88582689    -0.12400
C394        C  0.26086771  0.34869929  0.92421719     0.01600
H395        H  0.33510683  0.33193807  0.89773357     0.14500
H396        H  0.21252985  0.33988319  0.88194199     0.14500
C397        C  0.25037536  0.36860910  0.95531285     0.36200
C398        C  0.29732685  0.30383536  0.82312115     0.36100
N399        N  0.24205040  0.38489861  0.97985472    -0.44200
N400        N  0.30796136  0.29251695  0.79542853    -0.44100
C401        C  0.32227805  0.01924654  0.83939832    -0.00600
C402        C  0.34703633  0.04808139  0.86983789    -0.12400
C403        C  0.36217098  0.03881154  0.90617220     0.01700
C404        C  0.35329753  0.99939188  0.91325316    -0.00600
C405        C  0.32753105  0.47007326  0.88308012    -0.12400
C406        C  0.31183720  0.47958007  0.84674795     0.01600
H407        H  0.35422624  0.07835157  0.86565007     0.14500
H408        H  0.31917836  0.43955579  0.88717772     0.14500
C409        C  0.28563708  0.44800237  0.81745372     0.36200
C410        C  0.38653681  0.07084448  0.93597445     0.36100
N411        N  0.26447378  0.42246670  0.79428623    -0.44200
N412        N  0.40575780  0.09639428  0.95997386    -0.44100
C413        C  0.36871004  0.01275109  0.57227794    -0.00600
C414        C  0.35923230  0.04309182  0.56974187    -0.12400
C415        C  0.34257807  0.05203199  0.60354295     0.01700
C416        C  0.33480984  0.03063931  0.64149690    -0.00600
C417        C  0.34759543  0.50317268  0.64622684    -0.12400
C418        C  0.36563883  0.49500988  0.61261263     0.01600
H419        H  0.36433021  0.05986300  0.54074936     0.14500
H420        H  0.34424483  0.48867494  0.67659564     0.14500
C421        C  0.38200468  0.46997904  0.62190292     0.36200
C422        C  0.33308398  0.08300472  0.59823903     0.36100
N423        N  0.39543068  0.45032418  0.63079229    -0.44200
N424        N  0.32576462  0.10800366  0.59413350    -0.43700
C425        C  0.07705130  0.14100945  0.66181514    -0.00600
C426        C  0.03939688  0.12956761  0.64220130    -0.12400
C427        C  0.02357940  0.10245659  0.60769771     0.01700
C428        C  0.04470375  0.08489333  0.59214976    -0.00600
C429        C  0.08085592  0.09396843  0.61337270    -0.12400
C430        C  0.09712603  0.12154149  0.64761393     0.01600
H431        H  0.02289055  0.14338810  0.65226567     0.14500
H432        H  0.09816096  0.08187962  0.60081822     0.14500
C433        C  0.13544727  0.13041906  0.66573293     0.36200
C434        C  0.48766736  0.09650058  0.58563793     0.36100
N435        N  0.16623627  0.13737310  0.67992804    -0.44200
N436        N  0.45922749  0.09222674  0.56765736    -0.44100
C437        C  0.06366144  0.11357697  0.93293545    -0.00600
C438        C  0.09399090  0.15344458  0.93698907    -0.12400
C439        C  0.10953706  0.17650921  0.90057030     0.01700
C440        C  0.09455858  0.15962269  0.85963038    -0.00600
C441        C  0.06503486  0.12021561  0.85535389    -0.12400
C442        C  0.04973719  0.09705268  0.89097642     0.01600
H443        H  0.10568825  0.16678921  0.96813791     0.14500
H444        H  0.05345238  0.10754950  0.82374151     0.14500
C445        C  0.01891112  0.05638862  0.88271707     0.36200
C446        C  0.13958783  0.21771166  0.90593798     0.36100
N447        N  0.99396225  0.02411857  0.87548305    -0.44200
N448        N  0.16359642  0.25074440  0.91038018    -0.44100
C449        C  0.11625612  0.49678465  0.55302552    -0.00600
C450        C  0.15338674  0.03234310  0.55242078    -0.12400
C451        C  0.17972126  0.04610205  0.58819894     0.01700
C452        C  0.16939620  0.02444559  0.62615277    -0.00600
C453        C  0.13214102  0.48986610  0.62775392    -0.12400
C454        C  0.10527894  0.47638780  0.59230845     0.01600
H455        H  0.16221325  0.04995453  0.52388671     0.14500
H456        H  0.12362435  0.47364128  0.65732848     0.14500
C457        C  0.06669183  0.44236461  0.59888342     0.36200
C458        C  0.21795425  0.08157426  0.58428711     0.36100
N459        N  0.03574908  0.41569180  0.60617917    -0.44200
N460        N  0.24856752  0.10989453  0.58041016    -0.44100
C461        C  0.10231970  0.48391301  0.89166066    -0.00600
C462        C  0.09948267  0.00804826  0.85977856    -0.12400
C463        C  0.12476477  0.02108030  0.82499635     0.01700
C464        C  0.15391171  0.00996682  0.82080030    -0.00600
C465        C  0.15544264  0.98427260  0.85099093    -0.12400
C466        C  0.13077911  0.47172681  0.88609170     0.01600
H467        H  0.07859466  0.01829093  0.86184550     0.14500
H468        H  0.17770587  0.47557934  0.84857111     0.14500
C469        C  0.13835803  0.44915940  0.91771364     0.36200
C470        C  0.11985148  0.04586271  0.79408321     0.36100
N471        N  0.14581198  0.43212808  0.94311340    -0.44200
N472        N  0.11570157  0.06569463  0.76947225    -0.44100
C473        C  0.08354459  0.29795643  0.86391073    -0.00600
C474        C  0.10776569  0.31040601  0.90146342    -0.12400
C475        C  0.09323509  0.31581313  0.93980911     0.01700
C476        C  0.05318587  0.30731467  0.94115740    -0.00600
C477        C  0.03043644  0.29679678  0.90212897    -0.12400
C478        C  0.04480386  0.29160116  0.86445256     0.01600
H479        H  0.13805595  0.31603004  0.90077741     0.14500
H480        H  0.00165637  0.29481468  0.89974123     0.14500
C481        C  0.01988737  0.28214753  0.82592828     0.36200
C482        C  0.12085862  0.33230577  0.97603153     0.36100
N483        N  0.00010670  0.27474800  0.79503441    -0.44200
N484        N  0.14328494  0.34565967  0.50488283    -0.44100
C485        C  0.06775134  0.30828554  0.66906092    -0.00600
C486        C  0.03187727  0.28000318  0.64829990    -0.12400
C487        C  0.01649759  0.28953635  0.61219283     0.01700
C488        C  0.03609854  0.32859113  0.59681258    -0.00600
C489        C  0.06999809  0.35758110  0.61954527    -0.12400
C490        C  0.08553089  0.34814475  0.65577680     0.01600
H491        H  0.01741078  0.24936640  0.65790945     0.14500
H492        H  0.08690890  0.38689178  0.60651159     0.14500
C493        C  0.12073231  0.37990442  0.67701649     0.36200
C494        C  0.98491138  0.25725999  0.58733435     0.36100
N495        N  0.14882449  0.40561770  0.69388094    -0.44200
N496        N  0.96031242  0.23102969  0.06729618    -0.44100
C497        C  0.31779109  0.17256233  0.84615229    -0.00600
C498        C  0.29521688  0.18826601  0.86222566    -0.12400
C499        C  0.30859409  0.21347448  0.89851607     0.01700
C500        C  0.34627936  0.22489576  0.91858646    -0.00600
C501        C  0.36588063  0.20512539  0.90523024    -0.12400
C502        C  0.35325268  0.18075928  0.86915992     0.01600
H503        H  0.26686909  0.18070137  0.84660943     0.14500
H504        H  0.39190597  0.20869560  0.92306034     0.14500
C505        C  0.37828518  0.16522732  0.85711135     0.36200
C506        C  0.28149893  0.22422092  0.91590746     0.36100
N507        N  0.39904733  0.15365667  0.84751236    -0.44200
N508        N  0.25931550  0.23224983  0.92987241    -0.44100
C509        C  0.35652653  0.23825467  0.57785046    -0.00600
C510        C  0.38426093  0.23805211  0.60723459    -0.12400
C511        C  0.37169106  0.21383870  0.64316284     0.01700
C512        C  0.33039261  0.19022417  0.65077842    -0.00600
C513        C  0.30324003  0.19491684  0.62421789    -0.12400
C514        C  0.31584480  0.21825589  0.58781689     0.01600
H515        H  0.41562955  0.25537967  0.60096045     0.14500
H516        H  0.27167880  0.17859164  0.63044169     0.14500
C517        C  0.28637605  0.22091882  0.56093529     0.36200
C518        C  0.40189252  0.21372392  0.67119545     0.36100
N519        N  0.26275498  0.22321446  0.03955192    -0.44200
N520        N  0.42626832  0.21380364  0.69352923    -0.44100
C521        C  0.36523744  0.75356277  0.45711939     0.86100
C522        C  0.35818457  0.78836789  0.46153994    -0.54200
C523        C  0.37665936  0.81195212  0.99686217     0.09000
C524        C  0.40059476  0.79807220  0.02533793     0.20000
C525        C  0.41074953  0.77443527  0.45871297    -0.54900
C526        C  0.42984044  0.79595690  0.99496410     0.09100
C527        C  0.35219892  0.73162910  0.49913136    -0.54400
C528        C  0.36951489  0.75463893  0.03477504     0.09700
H529        H  0.33779767  0.79209288  0.44108857     0.14200
H530        H  0.41499306  0.81654897  0.05445704    -0.00100
H531        H  0.42675642  0.77386370  0.43140776     0.14500
H532        H  0.32993495  0.70042647  0.00059522     0.14300
C533        C  0.03719224  0.82092210  0.47735991     0.86100
C534        C  0.49180994  0.79756621  0.47757854    -0.54200
C535        C  0.47418981  0.81325369  0.00096259     0.09000
C536        C  0.00519869  0.84987168  0.02786440     0.20000
C537        C  0.04939775  0.86345251  0.46988584    -0.54900
C538        C  0.03226129  0.87974897  0.99376868     0.09100
C539        C  0.04879607  0.82058279  0.52365073    -0.54400
C540        C  0.03215306  0.83504885  0.05081485     0.09700
H541        H  0.47492097  0.76912851  0.46129036     0.14200
H542        H  0.49124275  0.86146182  0.04915032    -0.00100
H543        H  0.07113048  0.87915450  0.44606776     0.14500
H544        H  0.06586009  0.80713492  0.03485583     0.14300
C545        C  0.07869689  0.97399077  0.43315822     0.86100
C546        C  0.05236424  0.93074749  0.43977827    -0.54200
C547        C  0.03768959  0.91971374  0.97978951     0.09000
C548        C  0.04576225  0.95716949  0.00763131     0.20000
C549        C  0.04814661  0.98660162  0.43848924    -0.54900
C550        C  0.03516176  0.98428367  0.97922362     0.09100
C551        C  0.10803847  0.99073783  0.47262410    -0.54400
C552        C  0.09140422  0.98194003  0.01190132     0.09700
H553        H  0.04765120  0.91018247  0.41412973     0.14200
H554        H  0.02919486  0.94948529  0.03724928    -0.00100
H555        H  0.04118594  0.50151964  0.41371001     0.14500
H556        H  0.14003090  0.50789096  0.96892719     0.14300
C557        C  0.04650801  0.58692257  0.47138905     0.86100
C558        C  0.05719239  0.55507741  0.46932057    -0.54200
C559        C  0.03614524  0.52230800  0.99369374     0.09000
C560        C  0.00980751  0.52924279  0.02550736     0.20000
C561        C  0.50129622  0.56731997  0.46944385    -0.54900
C562        C  0.48100365  0.53605448  0.99559838     0.09100
C563        C  0.05760190  0.60125121  0.01722907    -0.54400
C564        C  0.03877613  0.57184760  0.04644293     0.09700
H565        H  0.07971667  0.55839483  0.44745291     0.14200
H566        H  0.49438038  0.00504594  0.04853842    -0.00100
H567        H  0.48703205  0.57896087  0.44852562     0.14500
H568        H  0.07727846  0.63195189  0.02657292     0.14300
C569        C  0.37152195  0.99021634  0.45298795     0.86100
C570        C  0.41689158  0.51427288  0.45408090    -0.54200
C571        C  0.43600719  0.01201936  0.99076981     0.09000
C572        C  0.40620806  0.98332031  0.02331218     0.20000
C573        C  0.36281320  0.94816552  0.46058814    -0.54900
C574        C  0.38038198  0.94401257  0.99727151     0.09100
C575        C  0.35889437  0.00109099  0.49384480    -0.54400
C576        C  0.37735888  0.99918727  0.03099000     0.09700
H577        H  0.43206493  0.53069908  0.42624356     0.14200
H578        H  0.42124116  0.98029877  0.05244952    -0.00100
H579        H  0.34286587  0.92316038  0.44052864     0.14500
H580        H  0.33634769  0.50964779  0.99285604     0.14300
C581        C  0.31678623  0.84819404  0.05238613     0.86100
C582        C  0.34229050  0.82905331  0.04800441    -0.54200
C583        C  0.36384929  0.83912581  0.51226192     0.09000
C584        C  0.35842121  0.86862565  0.48379375     0.20000
C585        C  0.34522185  0.89251829  0.04901709    -0.54900
C586        C  0.36714973  0.90386453  0.51343574     0.09100
C587        C  0.29161758  0.83615934  0.51010982    -0.54400
C588        C  0.31319092  0.84812676  0.47409072     0.09700
H589        H  0.33832802  0.80430320  0.06699198     0.14200
H590        H  0.37669709  0.87766405  0.45503964    -0.00100
H591        H  0.34202350  0.91316391  0.06865793     0.14500
H592        H  0.25924376  0.81947888  0.50877645     0.14300
Fe593      Fe  0.16808468  0.73097359  0.25617091     1.65800
Fe594      Fe  0.07721323  0.72438239  0.25665917     1.73200
Fe595      Fe  0.16200195  0.81533112  0.25849652     1.54400
O596        O  0.20456602  0.82248716  0.30280229    -0.82100
O597        O  0.06760446  0.75870801  0.21323759    -0.80400
O598        O  0.21154764  0.76992103  0.29980887    -0.84600
O599        O  0.20004433  0.76450850  0.20620782    -0.79400
O600        O  0.13032532  0.81516766  0.30993200    -0.81200
O601        O  0.07279468  0.68781316  0.20677932    -0.84000
C602        C  0.20987675  0.79885952  0.19306451     0.96800
C603        C  0.22059494  0.80317163  0.31570878     1.04200
O604        O  0.13585343  0.75701180  0.25637399    -1.12900
O605        O  0.07855598  0.68681404  0.30148317    -0.75400
O606        O  0.14062306  0.69786524  0.30826106    -0.78900
O607        O  0.19771706  0.82056145  0.20880821    -0.79600
C608        C  0.10548177  0.68299684  0.32089595     0.95700
O609        O  0.12889515  0.68609442  0.21253952    -0.77500
O610        O  0.07497562  0.75587165  0.30714460    -0.82700
C611        C  0.08695986  0.79435848  0.20135568     0.98300
C612        C  0.09746547  0.78931816  0.32477447     1.04200
O613        O  0.12227778  0.81786013  0.21511277    -0.78300
C614        C  0.09408173  0.67349426  0.19572921     1.02500
Fe615      Fe  0.32925155  0.60416185  0.24252507     1.65800
Fe616      Fe  0.24252361  0.51487423  0.23168113     1.73200
Fe617      Fe  0.24011775  0.60154144  0.23537139     1.54400
O618        O  0.26888277  0.63411665  0.29082572    -0.82100
O619        O  0.20529293  0.51330037  0.18155980    -0.80400
O620        O  0.32846223  0.63959900  0.28969764    -0.84600
O621        O  0.33533103  0.64414790  0.19639284    -0.79400
O622        O  0.19576004  0.56088033  0.27354099    -0.81200
O623        O  0.28103454  0.51525415  0.18670961    -0.84000
C624        C  0.31445782  0.65892245  0.18376287     0.96800
C625        C  0.30402957  0.64730066  0.30654917     1.04200
O626        O  0.27055129  0.57342680  0.23636590    -1.12900
O627        O  0.27575917  0.50908027  0.28164811    -0.75400
O628        O  0.33054305  0.56815449  0.28977427    -0.78900
O629        O  0.27968631  0.64675040  0.19697309    -0.79600
C630        C  0.30864393  0.53257271  0.30106363     0.95700
O631        O  0.33770617  0.57290397  0.19584338    -0.77500
O632        O  0.20085464  0.50698811  0.27614740    -0.82700
C633        C  0.19622137  0.53746295  0.16477838     0.98300
C634        C  0.18495085  0.52670123  0.28775158     1.04200
O635        O  0.20841369  0.57183679  0.18009946    -0.78300
C636        C  0.31679801  0.53969360  0.17724517     1.02500
C637        C  0.23814289  0.81458381  0.15873855    -0.00600
C638        C  0.27311540  0.81279162  0.16323287    -0.12400
C639        C  0.30051196  0.82571504  0.13090876     0.01700
C640        C  0.29151000  0.83822067  0.09166513    -0.00600
C641        C  0.25831613  0.84376356  0.08950862    -0.12400
C642        C  0.23146944  0.83166645  0.12231598     0.01600
H643        H  0.27942892  0.80196976  0.19266821     0.14500
H644        H  0.25267660  0.85682256  0.06158964     0.14500
C645        C  0.19637124  0.83522339  0.11695499     0.36200
C646        C  0.33831981  0.82833066  0.14082541     0.36100
N647        N  0.16815142  0.83789513  0.11277352    -0.44200
N648        N  0.36854130  0.83034719  0.14910745    -0.44100
C649        C  0.29381403  0.84307834  0.43076431    -0.00600
C650        C  0.30707959  0.83130080  0.39564897    -0.12400
C651        C  0.28388464  0.81795473  0.35750599     0.01700
C652        C  0.24846345  0.81932160  0.35313428    -0.00600
C653        C  0.23858606  0.83669204  0.38585171    -0.12400
C654        C  0.26085486  0.84867290  0.42424021     0.01600
H655        H  0.33510850  0.83193888  0.39774192     0.14500
H656        H  0.21250992  0.83984666  0.38197118     0.14500
C657        C  0.25035588  0.86857398  0.45533996     0.36200
C658        C  0.29732636  0.80383245  0.32313305     0.36100
N659        N  0.24202450  0.88485588  0.47988477    -0.44200
N660        N  0.30796482  0.79251971  0.29543889    -0.44100
C661        C  0.32227314  0.51923990  0.33939054    -0.00600
C662        C  0.34702947  0.54807256  0.36983240    -0.12400
C663        C  0.36216039  0.53879992  0.40616748     0.01700
C664        C  0.35328423  0.49937922  0.41324735    -0.00600
C665        C  0.32751584  0.97006782  0.38308478    -0.12400
C666        C  0.31182405  0.97957601  0.34675129     0.01600
H667        H  0.35422101  0.57834307  0.36564537     0.14500
H668        H  0.31916203  0.93955018  0.38718329     0.14500
C669        C  0.28562634  0.94799943  0.31745467     0.36200
C670        C  0.38652886  0.57083200  0.43596964     0.36100
N671        N  0.26446593  0.92246435  0.29428504    -0.44200
N672        N  0.40575356  0.59638119  0.45996834    -0.44100
C673        C  0.36871087  0.51275036  0.07227448    -0.00600
C674        C  0.35923499  0.54309222  0.06973660    -0.12400
C675        C  0.34257936  0.55203284  0.10353560     0.01700
C676        C  0.33480817  0.53063935  0.14148916    -0.00600
C677        C  0.34759400  0.00318313  0.14622880    -0.12400
C678        C  0.36564072  0.99502144  0.11261696     0.01600
H679        H  0.36433584  0.55986422  0.04074435     0.14500
H680        H  0.34423964  0.98868352  0.17659682     0.14500
C681        C  0.38200447  0.96998909  0.12190847     0.36200
C682        C  0.33308798  0.58300742  0.09822978     0.36100
N683        N  0.39542964  0.95033370  0.13079850    -0.44200
N684        N  0.32577124  0.60800798  0.09412159    -0.43700
C685        C  0.07705070  0.64101594  0.16181393    -0.00600
C686        C  0.03940490  0.62958615  0.14218538    -0.12400
C687        C  0.02359012  0.60247479  0.10768227     0.01700
C688        C  0.04470792  0.58489795  0.09215058    -0.00600
C689        C  0.08085087  0.59396202  0.11338761    -0.12400
C690        C  0.09711939  0.62153716  0.14762696     0.01600
H691        H  0.02290424  0.64341644  0.15223769     0.14500
H692        H  0.09815198  0.58186418  0.10084460     0.14500
C693        C  0.13543574  0.63040885  0.16575557     0.36200
C694        C  0.48768479  0.59652814  0.08560663     0.36100
N695        N  0.16622148  0.63735964  0.17995778    -0.44200
N696        N  0.45925399  0.59226536  0.06761467    -0.44100
C697        C  0.06364549  0.61357297  0.43292604    -0.00600
C698        C  0.09397377  0.65344032  0.43698213    -0.12400
C699        C  0.10951993  0.67650638  0.40056534     0.01700
C700        C  0.09453947  0.65962227  0.35962514    -0.00600
C701        C  0.06501423  0.62021621  0.35534597    -0.12400
C702        C  0.04971983  0.59705053  0.39096661     0.01600
H703        H  0.10567267  0.66678315  0.46813135     0.14500
H704        H  0.05343203  0.60755173  0.32373294     0.14500
C705        C  0.01890023  0.55638454  0.38270422     0.36200
C706        C  0.13957531  0.71770673  0.40593641     0.36100
N707        N  0.99395805  0.52411282  0.37546505    -0.44200
N708        N  0.16358854  0.75073730  0.41038381    -0.44100
C709        C  0.11625854  0.99678633  0.05303003    -0.00600
C710        C  0.15339377  0.53235940  0.05241881    -0.12400
C711        C  0.17972931  0.54611933  0.08819607     0.01700
C712        C  0.16940721  0.52446003  0.12614820    -0.00600
C713        C  0.13214224  0.98987787  0.12776147    -0.12400
C714        C  0.10528184  0.97639323  0.09231519     0.01600
H715        H  0.16221712  0.54997163  0.02388507     0.14500
H716        H  0.12362630  0.97365581  0.15733783     0.14500
C717        C  0.06669868  0.94236432  0.09889026     0.36200
C718        C  0.21796058  0.58159369  0.08428374     0.36100
N719        N  0.03575934  0.91568619  0.10618594    -0.44200
N720        N  0.24857237  0.60991522  0.08040460    -0.44100
C721        C  0.10231206  0.98391155  0.39165886    -0.00600
C722        C  0.09949078  0.50805606  0.35977510    -0.12400
C723        C  0.12477340  0.52108830  0.32499346     0.01700
C724        C  0.15391805  0.50997216  0.32079628    -0.00600
C725        C  0.15544770  0.48427666  0.35098624    -0.12400
C726        C  0.13077200  0.97172619  0.38608836     0.01600
H727        H  0.07860513  0.51830164  0.36184336     0.14500
H728        H  0.17770185  0.97558481  0.34856829     0.14500
C729        C  0.13834954  0.94915503  0.41770671     0.36200
C730        C  0.11986424  0.54587467  0.29408232     0.36100
N731        N  0.14580322  0.93212051  0.44310263    -0.44200
N732        N  0.11571887  0.56571014  0.26947243    -0.44100
C733        C  0.08354455  0.79795692  0.36390875    -0.00600
C734        C  0.10776643  0.81040491  0.40146090    -0.12400
C735        C  0.09323833  0.81581523  0.43980656     0.01700
C736        C  0.05319053  0.80732042  0.44115518    -0.00600
C737        C  0.03044011  0.79680366  0.40212754    -0.12400
C738        C  0.04480535  0.79160545  0.36445092     0.01600
H739        H  0.13805549  0.81602593  0.40077418     0.14500
H740        H  0.00166087  0.79482364  0.39974185     0.14500
C741        C  0.01988836  0.78215235  0.32592723     0.36200
C742        C  0.12086328  0.83230864  0.47602767     0.36100
N743        N  0.00010669  0.77475328  0.29503418    -0.44200
N744        N  0.14327740  0.84562688  0.00487639    -0.44100
C745        C  0.06777077  0.80829753  0.16905617    -0.00600
C746        C  0.03189403  0.78001127  0.14830269    -0.12400
C747        C  0.01651013  0.78953632  0.11219368     0.01700
C748        C  0.03610857  0.82858742  0.09680408    -0.00600
C749        C  0.07001256  0.85758199  0.11952795    -0.12400
C750        C  0.08554919  0.84815337  0.15576257     0.01600
H751        H  0.01742811  0.74937654  0.15791963     0.14500
H752        H  0.08692107  0.88689007  0.10648712     0.14500
C753        C  0.12074846  0.87991686  0.17700083     0.36200
C754        C  0.98492178  0.75725411  0.08734375     0.36100
N755        N  0.14883757  0.90563326  0.19386602    -0.44200
N756        N  0.96032553  0.73104873  0.56725249    -0.44100
C757        C  0.31780249  0.67256303  0.34615081    -0.00600
C758        C  0.29523122  0.68827204  0.36221848    -0.12400
C759        C  0.30860665  0.71347934  0.39850929     0.01700
C760        C  0.34628835  0.72489515  0.41858558    -0.00600
C761        C  0.36588688  0.70512041  0.40523409    -0.12400
C762        C  0.35325958  0.68075395  0.36916379     0.01600
H763        H  0.26688651  0.68071188  0.34659778     0.14500
H764        H  0.39190981  0.70868833  0.42306765     0.14500
C765        C  0.37828758  0.66521536  0.35712037     0.36200
C766        C  0.28151074  0.72422711  0.41589558     0.36100
N767        N  0.39904644  0.65363960  0.34752516    -0.44200
N768        N  0.25932497  0.73225554  0.42985507    -0.44100
C769        C  0.35651943  0.73825255  0.07783521    -0.00600
C770        C  0.38425657  0.73804565  0.10721119    -0.12400
C771        C  0.37169186  0.71383330  0.14314026     0.01700
C772        C  0.33039507  0.69022485  0.15076723    -0.00600
C773        C  0.30324025  0.69492150  0.12421404    -0.12400
C774        C  0.31584007  0.71825867  0.08781064     0.01600
H775        H  0.41562382  0.75537023  0.10092977     0.14500
H776        H  0.27168061  0.67860171  0.13044618     0.14500
C777        C  0.28636994  0.72092898  0.06093917     0.36200
C778        C  0.40189789  0.71371395  0.17116079     0.36100
N779        N  0.26276352  0.72318985  0.53952472    -0.44200
N780        N  0.42627953  0.71379172  0.19348278    -0.44100
C781        C  0.36523636  0.75358365  0.95712574     0.86100
C782        C  0.35819193  0.78839302  0.96155104    -0.54200
C783        C  0.37664015  0.81192522  0.49685501     0.09000
C784        C  0.40058017  0.79805258  0.52533519     0.20000
C785        C  0.41074864  0.77445123  0.95871211    -0.54900
C786        C  0.42983493  0.79594278  0.49496736     0.09100
C787        C  0.35219810  0.73165155  0.99913901    -0.54400
C788        C  0.36950673  0.75461681  0.53476959     0.09700
H789        H  0.33779747  0.79211798  0.94110568     0.14200
H790        H  0.41497157  0.81652994  0.55445543    -0.00100
H791        H  0.42675145  0.77388170  0.93140203     0.14500
H792        H  0.32994089  0.70040219  0.50058488     0.14300
C793        C  0.03719487  0.82092164  0.97734973     0.86100
C794        C  0.49180905  0.79757354  0.97756449    -0.54200
C795        C  0.47418519  0.81324071  0.50097600     0.09000
C796        C  0.00518829  0.84986403  0.52787456     0.20000
C797        C  0.04941449  0.86345653  0.96988277    -0.54900
C798        C  0.03224168  0.87974120  0.49377279     0.09100
C799        C  0.04878833  0.82057129  0.02364169    -0.54400
C800        C  0.03215583  0.83505465  0.55082498     0.09700
H801        H  0.47491600  0.76913720  0.96127426     0.14200
H802        H  0.49122937  0.86144265  0.54916637    -0.00100
H803        H  0.07115516  0.87915869  0.94607159     0.14500
H804        H  0.06588300  0.80716119  0.53486200     0.14300
C805        C  0.07873082  0.97400916  0.93316782     0.86100
C806        C  0.05240435  0.93076519  0.93978321    -0.54200
C807        C  0.03765907  0.91970138  0.47978961     0.09000
C808        C  0.04574549  0.95716247  0.50763059     0.20000
C809        C  0.04817193  0.98661074  0.93849058    -0.54900
C810        C  0.03514504  0.98427916  0.47922540     0.09100
C811        C  0.10806386  0.99075640  0.97264044    -0.54400
C812        C  0.09138838  0.98192506  0.51188839     0.09700
H813        H  0.04769836  0.91020420  0.91413316     0.14200
H814        H  0.02918799  0.94948499  0.53725567    -0.00100
H815        H  0.04116483  0.50151216  0.91372144     0.14500
H816        H  0.14004984  0.50790343  0.46894732     0.14300
C817        C  0.04652133  0.58692975  0.97139739     0.86100
C818        C  0.05719985  0.55507884  0.96933209    -0.54200
C819        C  0.03614262  0.52230528  0.49368100     0.09000
C820        C  0.00980397  0.52923482  0.52549970     0.20000
C821        C  0.50131115  0.56732866  0.96944803    -0.54900
C822        C  0.48099604  0.53604495  0.49559449     0.09100
C823        C  0.05759145  0.60124449  0.51722038    -0.54400
C824        C  0.03877073  0.57184071  0.54643525     0.09700
H825        H  0.07972025  0.55838885  0.94746303     0.14200
H826        H  0.49436183  0.00504600  0.54853531    -0.00100
H827        H  0.48705332  0.57897191  0.94852408     0.14500
H828        H  0.07726333  0.63194623  0.52656362     0.14300
C829        C  0.37153551  0.99023361  0.95300171     0.86100
C830        C  0.41690120  0.51428912  0.95408108    -0.54200
C831        C  0.43599637  0.01201472  0.49075447     0.09000
C832        C  0.40620268  0.98330277  0.52329108     0.20000
C833        C  0.36281009  0.94817955  0.96061486    -0.54900
C834        C  0.38038753  0.94399755  0.49724344     0.09100
C835        C  0.35891856  0.00112868  0.99385299    -0.54400
C836        C  0.37734249  0.99915400  0.53097746     0.09700
H837        H  0.43207464  0.53072807  0.92625013     0.14200
H838        H  0.42124029  0.98028201  0.55242458    -0.00100
H839        H  0.34285927  0.92317206  0.94055944     0.14500
H840        H  0.33636027  0.50967814  0.49285906     0.14300
C841        C  0.31676456  0.84819088  0.55235944     0.86100
C842        C  0.34224728  0.82902432  0.54798212    -0.54200
C843        C  0.36388442  0.83916003  0.01227945     0.09000
C844        C  0.35843548  0.86864741  0.98381398     0.20000
C845        C  0.34522154  0.89251158  0.54899385    -0.54900
C846        C  0.36714844  0.90387983  0.01345866     0.09100
C847        C  0.29163385  0.83615085  0.01013693    -0.54400
C848        C  0.31320340  0.84812636  0.97411254     0.09700
H849        H  0.33827793  0.80427759  0.56698295     0.14200
H850        H  0.37671139  0.87769558  0.95505986    -0.00100
H851        H  0.34203440  0.91316466  0.56863442     0.14500
H852        H  0.25926004  0.81946212  0.00881140     0.14300
Fe853      Fe  0.16810418  0.73097827  0.75615580     1.65800
Fe854      Fe  0.07722950  0.72438861  0.75666486     1.73200
Fe855      Fe  0.16201957  0.81533647  0.75850615     1.54400
O856        O  0.20461086  0.82249781  0.80278345    -0.82100
O857        O  0.06762264  0.75869661  0.71321481    -0.80400
O858        O  0.21156777  0.76991597  0.79980847    -0.84600
O859        O  0.20006424  0.76453339  0.70620109    -0.79400
O860        O  0.13036671  0.81516617  0.80996439    -0.81200
O861        O  0.07279590  0.68778984  0.70680899    -0.84000
C862        C  0.20987581  0.79887693  0.69304852     0.96800
C863        C  0.22063021  0.80317522  0.81569819     1.04200
O864        O  0.13587111  0.75701610  0.75637582    -1.12900
O865        O  0.07858715  0.68685049  0.80151964    -0.75400
O866        O  0.14063834  0.69784586  0.80823631    -0.78900
O867        O  0.19770615  0.82057082  0.70878991    -0.79600
C868        C  0.10550887  0.68300574  0.82090212     0.95700
O869        O  0.12891814  0.68610872  0.71250707    -0.77500
O870        O  0.07498493  0.75589730  0.80712518    -0.82700
C871        C  0.08696720  0.79435840  0.70136587     0.98300
C872        C  0.09748687  0.78932932  0.82477806     1.04200
O873        O  0.12227219  0.81786688  0.71515556    -0.78300
C874        C  0.09408947  0.67348853  0.69572801     1.02500
Fe875      Fe  0.32924229  0.60417120  0.74253687     1.65800
Fe876      Fe  0.24251291  0.51488270  0.73169780     1.73200
Fe877      Fe  0.24010647  0.60155008  0.73539480     1.54400
O878        O  0.26888142  0.63413293  0.79084058    -0.82100
O879        O  0.20527425  0.51330561  0.68158350    -0.80400
O880        O  0.32845774  0.63960774  0.78971410    -0.84600
O881        O  0.33531943  0.64416040  0.69640929    -0.79400
O882        O  0.19575526  0.56089213  0.77357331    -0.81200
O883        O  0.28101997  0.51526250  0.68671916    -0.84000
C884        C  0.31444112  0.65892859  0.68377640     0.96800
C885        C  0.30402787  0.64731504  0.80656317     1.04200
O886        O  0.27054077  0.57343575  0.73638350    -1.12900
O887        O  0.27575421  0.50908854  0.78165943    -0.75400
O888        O  0.33053924  0.56816288  0.78978213    -0.78900
O889        O  0.27966832  0.64675272  0.69698525    -0.79600
C890        C  0.30864163  0.53258076  0.80107078     0.95700
O891        O  0.33769097  0.57291367  0.69584799    -0.77500
O892        O  0.20084658  0.50699707  0.77616689    -0.82700
C893        C  0.19619575  0.53746591  0.66481007     0.98300
C894        C  0.18494277  0.52670925  0.78777478     1.04200
O895        O  0.20838906  0.57183934  0.68013238    -0.78300
C896        C  0.31678206  0.53970303  0.67724984     1.02500
C897        C  0.23813362  0.81460451  0.65871720    -0.00600
C898        C  0.27313191  0.81286089  0.66322670    -0.12400
C899        C  0.30051915  0.82577770  0.63089441     0.01700
C900        C  0.29148641  0.83822977  0.59163416    -0.00600
C901        C  0.25826911  0.84373638  0.58946239    -0.12400
C902        C  0.23142601  0.83163905  0.62227326     0.01600
H903        H  0.27946891  0.80207639  0.69267608     0.14500
H904        H  0.25260794  0.85676666  0.56153222     0.14500
C905        C  0.19629694  0.83514175  0.61689309     0.36200
C906        C  0.33834424  0.82843004  0.64080630     0.36100
N907        N  0.16805251  0.83776906  0.61269194    -0.44200
N908        N  0.36858065  0.83047659  0.64908036    -0.44100
C909        C  0.29382486  0.84306850  0.93078106    -0.00600
C910        C  0.30711343  0.83132357  0.89565715    -0.12400
C911        C  0.28393163  0.81798677  0.85750271     0.01700
C912        C  0.24849369  0.81932322  0.85313163    -0.00600
C913        C  0.23859274  0.83666405  0.88585866    -0.12400
C914        C  0.26085108  0.84863923  0.92425488     0.01600
H915        H  0.33515571  0.83198438  0.89775032     0.14500
H916        H  0.21250599  0.83980128  0.88197784     0.14500
C917        C  0.25033010  0.86851788  0.95535858     0.36200
C918        C  0.29740936  0.80391925  0.82311258     0.36100
N919        N  0.24198221  0.88478347  0.97990656    -0.44200
N920        N  0.30808108  0.79265599  0.79540359    -0.44100
C921        C  0.32227534  0.51924720  0.83939265    -0.00600
C922        C  0.34700868  0.54807381  0.86985084    -0.12400
C923        C  0.36214297  0.53879922  0.90618230     0.01700
C924        C  0.35329302  0.49938362  0.91324134    -0.00600
C925        C  0.32751008  0.97007326  0.88311208    -0.12400
C926        C  0.31181498  0.97957585  0.84677744     0.01600
H927        H  0.35417926  0.57834020  0.86567874     0.14500
H928        H  0.31913530  0.93955213  0.88722943     0.14500
C929        C  0.28558373  0.94798907  0.81750810     0.36200
C930        C  0.38648424  0.57082257  0.93600412     0.36100
N931        N  0.26439464  0.92244767  0.79435980    -0.44200
N932        N  0.40568486  0.59636403  0.96001982    -0.44100
C933        C  0.36871040  0.51276758  0.57228279    -0.00600
C934        C  0.35923901  0.54311253  0.56974614    -0.12400
C935        C  0.34257573  0.55204873  0.60354225     0.01700
C936        C  0.33479214  0.53064801  0.64149230    -0.00600
C937        C  0.34762271  0.00317114  0.64623109    -0.12400
C938        C  0.36565731  0.99500452  0.61261077     0.01600
H939        H  0.36434873  0.55988982  0.54075645     0.14500
H940        H  0.34428375  0.98868017  0.67660241     0.14500
C941        C  0.38203151  0.96997960  0.62189453     0.36200
C942        C  0.33309223  0.58302848  0.59823756     0.36100
N943        N  0.39546580  0.95033007  0.63077449    -0.44200
N944        N  0.32578365  0.60803457  0.59412966    -0.43700
C945        C  0.07704664  0.64100987  0.66181000    -0.00600
C946        C  0.03942325  0.62962397  0.64214799    -0.12400
C947        C  0.02360350  0.60251337  0.60764349     0.01700
C948        C  0.04469299  0.58489501  0.59214163    -0.00600
C949        C  0.08081000  0.59391594  0.61341007    -0.12400
C950        C  0.09708122  0.62148601  0.64765517     0.01600
H951        H  0.02294755  0.64348876  0.65217432     0.14500
H952        H  0.09808963  0.58178363  0.60089249     0.14500
C953        C  0.13536090  0.63029498  0.66583513     0.36200
C954        C  0.48773322  0.59660646  0.58554196     0.36100
N955        N  0.16611633  0.63719270  0.68007962    -0.44200
N956        N  0.45932560  0.59237014  0.56751912    -0.44100
C957        C  0.06366608  0.61358165  0.93293477    -0.00600
C958        C  0.09399622  0.65344892  0.93699118    -0.12400
C959        C  0.10954646  0.67651493  0.90057390     0.01700
C960        C  0.09457253  0.65962996  0.85963239    -0.00600
C961        C  0.06504617  0.62022405  0.85535371    -0.12400
C962        C  0.04974360  0.59706025  0.89097477     0.01600
H963        H  0.10569114  0.66679238  0.96814087     0.14500
H964        H  0.05346495  0.60755955  0.82374047     0.14500
C965        C  0.01891478  0.55639794  0.88271302     0.36200
C966        C  0.13959669  0.71771686  0.90594552     0.36100
N967        N  0.99396345  0.52412915  0.87547800    -0.44200
N968        N  0.16360446  0.75074907  0.91039372    -0.44100
C969        C  0.11625487  0.99676427  0.55300956    -0.00600
C970        C  0.15339381  0.53235710  0.55243985    -0.12400
C971        C  0.17972169  0.54611364  0.58822228     0.01700
C972        C  0.16938128  0.52446598  0.62618076    -0.00600
C973        C  0.13216501  0.98983383  0.62772435    -0.12400
C974        C  0.10529429  0.97635724  0.59228642     0.01600
H975        H  0.16223302  0.54996431  0.52390341     0.14500
H976        H  0.12365901  0.97360132  0.65729474     0.14500
C977        C  0.06671212  0.94232850  0.59886395     0.36200
C978        C  0.21796619  0.58157034  0.58430763     0.36100
N979        N  0.03577290  0.91565226  0.60616318    -0.44200
N980        N  0.24858887  0.60987692  0.58042444    -0.44100
C981        C  0.10235021  0.98393289  0.89167069    -0.00600
C982        C  0.09945139  0.50802743  0.85976724    -0.12400
C983        C  0.12474424  0.52107086  0.82499366     0.01700
C984        C  0.15390202  0.50997065  0.82080963    -0.00600
C985        C  0.15542993  0.48427308  0.85099659    -0.12400
C986        C  0.13080319  0.97173949  0.88609633     0.01600
H987        H  0.07855447  0.51825994  0.86182701     0.14500
H988        H  0.17771207  0.97557100  0.84855962     0.14500
C989        C  0.13838173  0.94917215  0.91771886     0.36200
C990        C  0.11982925  0.54584659  0.79407268     0.36100
N991        N  0.14583207  0.93213859  0.94311927    -0.44200
N992        N  0.11567977  0.56567158  0.76945159    -0.44100
C993        C  0.08355907  0.79796476  0.86390734    -0.00600
C994        C  0.10776192  0.81037278  0.90147250    -0.12400
C995        C  0.09322633  0.81577414  0.93981593     0.01700
C996        C  0.05319039  0.80731765  0.94114585    -0.00600
C997        C  0.03045848  0.79683781  0.90210713    -0.12400
C998        C  0.04483009  0.79164299  0.86443329     0.01600
H999        H  0.13804168  0.81596550  0.90079877     0.14500
H1000       H  0.00168989  0.79488143  0.89971488     0.14500
C1001       C  0.01993087  0.78221865  0.82589901     0.36200
C1002       C  0.12083308  0.83221001  0.97605795     0.36100
N1003       N  0.00016328  0.77484031  0.79499760    -0.44200
N1004       N  0.14332130  0.84577583  0.50482857    -0.44100
C1005       C  0.06778294  0.80830616  0.66906800    -0.00600
C1006       C  0.03188968  0.78003002  0.64833212    -0.12400
C1007       C  0.01650708  0.78955731  0.61222250     0.01700
C1008       C  0.03612264  0.82860212  0.59681574    -0.00600
C1009       C  0.07004639  0.85758842  0.61952107    -0.12400
C1010       C  0.08558175  0.84815854  0.65575566     0.01600
H1011       H  0.01740673  0.74939883  0.65796368     0.14500
H1012       H  0.08696931  0.88688845  0.60646478     0.14500
C1013       C  0.12080427  0.87991603  0.67696789     0.36200
C1014       C  0.98489798  0.75727794  0.58738948     0.36100
N1015       N  0.14891253  0.90562850  0.69381062    -0.44200
N1016       N  0.96036622  0.73102454  0.06719275    -0.44100
C1017       C  0.31780199  0.67258164  0.84616112    -0.00600
C1018       C  0.29522891  0.68828947  0.86222792    -0.12400
C1019       C  0.30860366  0.71349902  0.89851703     0.01700
C1020       C  0.34628524  0.72491553  0.91859344    -0.00600
C1021       C  0.36588440  0.70514085  0.90524315    -0.12400
C1022       C  0.35326000  0.68077567  0.86917299     0.01600
H1023       H  0.26688315  0.68072659  0.84660776     0.14500
H1024       H  0.39190587  0.70870698  0.92307841     0.14500
C1025       C  0.37828938  0.66523773  0.85713224     0.36200
C1026       C  0.28150747  0.72424779  0.91590102     0.36100
N1027       N  0.39904850  0.65366086  0.84754157    -0.44200
N1028       N  0.25931913  0.73227454  0.92985697    -0.44100
C1029       C  0.35650086  0.73823071  0.57782817    -0.00600
C1030       C  0.38423858  0.73806229  0.60723469    -0.12400
C1031       C  0.37167189  0.71386200  0.64317363     0.01700
C1032       C  0.33037313  0.69022529  0.65077553    -0.00600
C1033       C  0.30321313  0.69488383  0.62418992    -0.12400
C1034       C  0.31581493  0.71820991  0.58777928     0.01600
H1035       H  0.41560912  0.75540814  0.60097254     0.14500
H1036       H  0.27165013  0.67854254  0.63040377     0.14500
C1037       C  0.28633989  0.72083945  0.56087338     0.36200
C1038       C  0.40187708  0.71378808  0.67123581     0.36100
N1039       N  0.26279683  0.72331412  0.03962227    -0.44200
N1040       N  0.42625759  0.71390355  0.69359318    -0.44100
C1041       C  0.86524360  0.25358287  0.45714110     0.86100
C1042       C  0.85819630  0.28839065  0.46156374    -0.54200
C1043       C  0.87663631  0.31192876  0.99685362     0.09000
C1044       C  0.90057590  0.29805748  0.02533618     0.20000
C1045       C  0.91075582  0.27445212  0.45872506    -0.54900
C1046       C  0.92983182  0.29594605  0.99496993     0.09100
C1047       C  0.85220901  0.23165267  0.49915523    -0.54400
C1048       C  0.86949983  0.25462255  0.03477216     0.09700
H1049       H  0.83780117  0.29211193  0.44111998     0.14200
H1050       H  0.91496675  0.31653626  0.05445560    -0.00100
H1051       H  0.92675871  0.27388216  0.43141516     0.14500
H1052       H  0.82993313  0.20040687  0.00058944     0.14300
C1053       C  0.53719276  0.32091834  0.47736203     0.86100
C1054       C  0.99181690  0.29757762  0.47757907    -0.54200
C1055       C  0.97418400  0.31324695  0.00097491     0.09000
C1056       C  0.50518239  0.34985316  0.02788076     0.20000
C1057       C  0.54940704  0.36344969  0.46987876    -0.54900
C1058       C  0.53224865  0.37973551  0.99378799     0.09100
C1059       C  0.54879292  0.32058342  0.52365484    -0.54400
C1060       C  0.53213561  0.33502513  0.05083061     0.09700
H1061       H  0.97492515  0.26914041  0.46129028     0.14200
H1062       H  0.99123039  0.36144640  0.04916892    -0.00100
H1063       H  0.57114701  0.37914679  0.44606499     0.14500
H1064       H  0.56585289  0.30712193  0.03486344     0.14300
C1065       C  0.57873741  0.47401230  0.43315974     0.86100
C1066       C  0.55241370  0.43076747  0.43977440    -0.54200
C1067       C  0.53767459  0.41970001  0.97980280     0.09000
C1068       C  0.54575299  0.45716189  0.00763808     0.20000
C1069       C  0.54817524  0.48661021  0.43847739    -0.54900
C1070       C  0.53514473  0.48427101  0.97922873     0.09100
C1071       C  0.60806634  0.49075983  0.47263546    -0.54400
C1072       C  0.59139561  0.48193354  0.01189367     0.09700
H1073       H  0.54771174  0.41020770  0.41412472     0.14200
H1074       H  0.52919706  0.44948537  0.03726434    -0.00100
H1075       H  0.54115640  0.00150828  0.41372653     0.14500
H1076       H  0.64004944  0.00789648  0.96895024     0.14300
C1077       C  0.54651497  0.08692329  0.47139534     0.86100
C1078       C  0.55719594  0.05507392  0.46933673    -0.54200
C1079       C  0.53615122  0.02230624  0.99369195     0.09000
C1080       C  0.50981391  0.02923890  0.02551008     0.20000
C1081       C  0.00130290  0.06732321  0.46943704    -0.54900
C1082       C  0.98100595  0.03605351  0.99560371     0.09100
C1083       C  0.55760630  0.10124806  0.01723126    -0.54400
C1084       C  0.53878251  0.07184459  0.04644619     0.09700
H1085       H  0.57971868  0.05838376  0.44747110     0.14200
H1086       H  0.99437267  0.50505051  0.04853601    -0.00100
H1087       H  0.98704377  0.07896196  0.44850850     0.14500
H1088       H  0.57728036  0.13194955  0.02657413     0.14300
C1089       C  0.87152403  0.49022420  0.45299401     0.86100
C1090       C  0.91688963  0.01428131  0.45407766    -0.54200
C1091       C  0.93600571  0.51201947  0.99075659     0.09000
C1092       C  0.90620951  0.48330513  0.02328973     0.20000
C1093       C  0.86280119  0.44817078  0.46060686    -0.54900
C1094       C  0.88039665  0.44400123  0.99723929     0.09100
C1095       C  0.85890728  0.50111865  0.49384619    -0.54400
C1096       C  0.87734825  0.49915521  0.03097271     0.09700
H1097       H  0.93206015  0.03071874  0.42624474     0.14200
H1098       H  0.92124478  0.48028326  0.05242466    -0.00100
H1099       H  0.84285076  0.42316251  0.44055199     0.14500
H1100       H  0.83637265  0.00969768  0.99286588     0.14300
C1101       C  0.81675315  0.34819504  0.05234694     0.86100
C1102       C  0.84223205  0.32902331  0.04797421    -0.54200
C1103       C  0.86389050  0.33916112  0.51228695     0.09000
C1104       C  0.85843600  0.36864204  0.48381605     0.20000
C1105       C  0.84521613  0.39251503  0.04898568    -0.54900
C1106       C  0.86714817  0.40387733  0.51345415     0.09100
C1107       C  0.79163665  0.33614569  0.51014603    -0.54400
C1108       C  0.81320319  0.34811722  0.47411930     0.09700
H1109       H  0.83826355  0.30428073  0.06698256     0.14200
H1110       H  0.87670956  0.37768741  0.45506010    -0.00100
H1111       H  0.84203094  0.41316943  0.06862600     0.14500
H1112       H  0.75926274  0.31945893  0.50882544     0.14300
Fe1113     Fe  0.66811330  0.23098799  0.25615811     1.65800
Fe1114     Fe  0.57723602  0.22438806  0.25667881     1.73200
Fe1115     Fe  0.66201998  0.31534082  0.25852000     1.54400
O1116       O  0.70460165  0.32249625  0.30280519    -0.82100
O1117       O  0.56762274  0.25870305  0.21324332    -0.80400
O1118       O  0.71158669  0.26993277  0.29979582    -0.84600
O1119       O  0.70005960  0.26453776  0.20619237    -0.79400
O1120       O  0.63035773  0.31516606  0.30997352    -0.81200
O1121       O  0.57280274  0.18779957  0.20681196    -0.84000
C1122       C  0.70987914  0.29888739  0.19305331     0.96800
C1123       C  0.72063442  0.30318134  0.31570316     1.04200
O1124       O  0.63587639  0.25702117  0.25638496    -1.12900
O1125       O  0.57860065  0.18684250  0.30152028    -0.75400
O1126       O  0.64066098  0.19786495  0.30824995    -0.78900
O1127       O  0.69771778  0.32058331  0.20880883    -0.79600
C1128       C  0.60552795  0.18301102  0.32090977     0.95700
O1129       O  0.62891913  0.18610877  0.21252356    -0.77500
O1130       O  0.57499224  0.25588452  0.30715037    -0.82700
C1131       C  0.58696815  0.29436196  0.20138400     0.98300
C1132       C  0.59748591  0.28932137  0.32479623     1.04200
O1133       O  0.62227721  0.31787021  0.21516238    -0.78300
C1134       C  0.59409287  0.17349160  0.19573960     1.02500
Fe1135     Fe  0.82923594  0.10417837  0.24254626     1.65800
Fe1136     Fe  0.74250763  0.01489142  0.23170105     1.73200
Fe1137     Fe  0.74009987  0.10155967  0.23540374     1.54400
O1138       O  0.76887914  0.13414709  0.29084770    -0.82100
O1139       O  0.70527634  0.01331853  0.18158312    -0.80400
O1140       O  0.82844752  0.13960314  0.28973303    -0.84600
O1141       O  0.83531504  0.14417650  0.19642772    -0.79400
O1142       O  0.69575232  0.06090382  0.27358767    -0.81200
O1143       O  0.78102047  0.01527339  0.18672677    -0.84000
C1144       C  0.81443361  0.15893834  0.18378457     0.96800
C1145       C  0.80402137  0.14731767  0.30657801     1.04200
O1146       O  0.77053448  0.07344440  0.23639088    -1.12900
O1147       O  0.77574130  0.00909195  0.28166680    -0.75400
O1148       O  0.83053328  0.06816142  0.28978346    -0.78900
O1149       O  0.77965774  0.14675808  0.19698675    -0.79600
C1150       C  0.80863163  0.03258051  0.30107487     0.95700
O1151       O  0.83768578  0.07293081  0.19584690    -0.77500
O1152       O  0.70083540  0.00700325  0.27616427    -0.82700
C1153       C  0.69619094  0.03747588  0.16481606     0.98300
C1154       C  0.68493580  0.02671715  0.28778036     1.04200
O1155       O  0.70837655  0.07184573  0.18014444    -0.78300
C1156       C  0.81677993  0.03971819  0.17725188     1.02500
C1157       C  0.73813410  0.31461843  0.15871871    -0.00600
C1158       C  0.77314671  0.31290123  0.16323230    -0.12400
C1159       C  0.80052683  0.32581421  0.13089206     0.01700
C1160       C  0.79147336  0.33823414  0.09162157    -0.00600
C1161       C  0.75824105  0.34371698  0.08944458    -0.12400
C1162       C  0.73140493  0.33162398  0.12226272     0.01600
H1163       H  0.77949852  0.30213796  0.19268878     0.14500
H1164       H  0.75256379  0.35672788  0.06150748     0.14500
C1165       C  0.69626062  0.33510004  0.11687902     0.36200
C1166       C  0.83836324  0.32848975  0.14079968     0.36100
N1167       N  0.66800389  0.33770567  0.11267459    -0.44200
N1168       N  0.86860932  0.33055535  0.14906783    -0.44100
C1169       C  0.79382255  0.34305803  0.43078966    -0.00600
C1170       C  0.80711111  0.33131302  0.39566552    -0.12400
C1171       C  0.78393079  0.31798085  0.35750992     0.01700
C1172       C  0.74849620  0.31932342  0.35313779    -0.00600
C1173       C  0.73859426  0.33666109  0.38586726    -0.12400
C1174       C  0.76085022  0.34863103  0.42426458     0.01600
H1175       H  0.83515084  0.33197141  0.39775835     0.14500
H1176       H  0.71250882  0.33980041  0.38198751     0.14500
C1177       C  0.75032810  0.36850778  0.45536949     0.36200
C1178       C  0.79740719  0.30391053  0.32312100     0.36100
N1179       N  0.74197790  0.38477166  0.47991720    -0.44200
N1180       N  0.80807821  0.29264445  0.29541397    -0.44100
C1181       C  0.82226278  0.01924444  0.33939733    -0.00600
C1182       C  0.84699391  0.04806933  0.36985785    -0.12400
C1183       C  0.86212819  0.03879343  0.40618860     0.01700
C1184       C  0.85327770  0.99937743  0.41324677    -0.00600
C1185       C  0.82750039  0.47006529  0.38310331    -0.12400
C1186       C  0.81181047  0.47957001  0.34676578     0.01600
H1187       H  0.85416467  0.07833587  0.36568674     0.14500
H1188       H  0.81912348  0.43954360  0.38722185     0.14500
C1189       C  0.78558078  0.44798437  0.31749433     0.36200
C1190       C  0.88647397  0.07081681  0.43600860     0.36100
N1191       N  0.76439302  0.42244350  0.29434477    -0.44200
N1192       N  0.90567958  0.09635804  0.46002275    -0.44100
C1193       C  0.86871821  0.01278562  0.07229057    -0.00600
C1194       C  0.85924886  0.04313201  0.06975254    -0.12400
C1195       C  0.84258076  0.05206644  0.10354562     0.01700
C1196       C  0.83479179  0.03066359  0.14149495    -0.00600
C1197       C  0.84762240  0.50317199  0.14622224    -0.12400
C1198       C  0.86565869  0.49500524  0.11260435     0.01600
H1199       H  0.86436242  0.05991063  0.04076331     0.14500
H1200       H  0.84428219  0.48868158  0.17659413     0.14500
C1201       C  0.88203177  0.46997986  0.12189143     0.36200
C1202       C  0.83309435  0.08304378  0.09823625     0.36100
N1203       N  0.89546445  0.45032970  0.13077516    -0.44200
N1204       N  0.82578249  0.10804715  0.09412266    -0.43700
C1205       C  0.57705071  0.14100975  0.16182526    -0.00600
C1206       C  0.53942415  0.12961606  0.14216711    -0.12400
C1207       C  0.52360800  0.10250732  0.10766063     0.01700
C1208       C  0.54470434  0.08489814  0.09215341    -0.00600
C1209       C  0.58082361  0.09392454  0.11342044    -0.12400
C1210       C  0.59709070  0.12149209  0.14766800     0.01600
H1211       H  0.52294328  0.14347415  0.15219740     0.14500
H1212       H  0.59810765  0.08179804  0.10090054     0.14500
C1213       C  0.63537128  0.13030445  0.16584859     0.36200
C1214       C  0.98772972  0.09660876  0.08554793     0.36100
N1215       N  0.66612698  0.13720428  0.18009446    -0.44200
N1216       N  0.95932257  0.09237205  0.06752386    -0.44100
C1217       C  0.56366726  0.11357708  0.43293475    -0.00600
C1218       C  0.59399809  0.15344373  0.43699657    -0.12400
C1219       C  0.60955661  0.17651290  0.40058294     0.01700
C1220       C  0.59459171  0.15963132  0.35963821    -0.00600
C1221       C  0.56506693  0.12022487  0.35535425    -0.12400
C1222       C  0.54975443  0.09705875  0.39097227     0.01600
H1223       H  0.60568683  0.16678525  0.46814820     0.14500
H1224       H  0.55349212  0.10756258  0.32373895     0.14500
C1225       C  0.51892396  0.05639841  0.38270403     0.36200
C1226       C  0.63960409  0.21771475  0.40596318     0.36100
N1227       N  0.49397101  0.02413175  0.37546178    -0.44200
N1228       N  0.66360942  0.25074662  0.41042219    -0.44100
C1229       C  0.61626226  0.49677737  0.05301280    -0.00600
C1230       C  0.65339316  0.03235600  0.05244184    -0.12400
C1231       C  0.67971919  0.04611775  0.08822570     0.01700
C1232       C  0.66937678  0.02447498  0.12618718    -0.00600
C1233       C  0.63217971  0.48984531  0.12772292    -0.12400
C1234       C  0.60530786  0.47636647  0.09228714     0.01600
H1235       H  0.66223336  0.04995981  0.02390315     0.14500
H1236       H  0.62367866  0.47360977  0.15729171     0.14500
C1237       C  0.56673115  0.44232997  0.09886347     0.36200
C1238       C  0.71796381  0.08157429  0.08430989     0.36100
N1239       N  0.53579545  0.41564761  0.10616103    -0.44200
N1240       N  0.74858655  0.10988069  0.08042591    -0.44100
C1241       C  0.60236028  0.48393982  0.39166467    -0.00600
C1242       C  0.59944120  0.00802392  0.35977222    -0.12400
C1243       C  0.62473371  0.02107010  0.32499898     0.01700
C1244       C  0.65389534  0.00997519  0.32081499    -0.00600
C1245       C  0.65542617  0.98427822  0.35100093    -0.12400
C1246       C  0.63081298  0.47174623  0.38609062     0.01600
H1247       H  0.57854099  0.01825229  0.36183108     0.14500
H1248       H  0.67772133  0.47557671  0.34855329     0.14500
C1249       C  0.63838903  0.44917739  0.41771354     0.36200
C1250       C  0.61981099  0.04584033  0.29407711     0.36100
N1251       N  0.64583529  0.43214219  0.44311567    -0.44200
N1252       N  0.61565092  0.06565966  0.26945721    -0.44100
C1253       C  0.58355585  0.29795247  0.36392674    -0.00600
C1254       C  0.60776423  0.31037674  0.40148776    -0.12400
C1255       C  0.59322868  0.31577939  0.43983068     0.01700
C1256       C  0.55318719  0.30730544  0.44116557    -0.00600
C1257       C  0.53044681  0.29680305  0.40213176    -0.12400
C1258       C  0.54481956  0.29161083  0.36445770     0.01600
H1259       H  0.63804885  0.31598399  0.40081036     0.14500
H1260       H  0.50167168  0.29483200  0.39974022     0.14500
C1261       C  0.51991454  0.28217475  0.32592645     0.36200
C1262       C  0.62084112  0.33223836  0.47606552     0.36100
N1263       N  0.50014221  0.27478908  0.29502781    -0.44200
N1264       N  0.64330055  0.34573081  0.00484082    -0.44100
C1265       C  0.56778003  0.30830453  0.16908465    -0.00600
C1266       C  0.53188279  0.28002481  0.14835888    -0.12400
C1267       C  0.51649826  0.28954189  0.11224316     0.01700
C1268       C  0.53611231  0.32858221  0.09682305    -0.00600
C1269       C  0.57004092  0.35757313  0.11951841    -0.12400
C1270       C  0.58558045  0.34815256  0.15575688     0.01600
H1271       H  0.51739913  0.24939665  0.15800165     0.14500
H1272       H  0.58696400  0.38686863  0.10645125     0.14500
C1273       C  0.62080882  0.37991406  0.17695642     0.36200
C1274       C  0.48488926  0.25725424  0.08741960     0.36100
N1275       N  0.64892188  0.40562999  0.19378841    -0.44200
N1276       N  0.46035058  0.23103979  0.56717785    -0.44100
C1277       C  0.81779642  0.17257983  0.34617965    -0.00600
C1278       C  0.79522172  0.18828173  0.36225707    -0.12400
C1279       C  0.80860034  0.21348948  0.39854787     0.01700
C1280       C  0.84628869  0.22491376  0.41861112    -0.00600
C1281       C  0.86588893  0.20514311  0.40525304    -0.12400
C1282       C  0.85325842  0.18077563  0.36918491     0.01600
H1283       H  0.76687163  0.18071471  0.34664502     0.14500
H1284       H  0.89191432  0.20871192  0.42308192     0.14500
C1285       C  0.87828501  0.16523524  0.35714164     0.36200
C1286       C  0.78150293  0.22422875  0.41594848     0.36100
N1287       N  0.89904143  0.15365527  0.34755058    -0.44200
N1288       N  0.75931514  0.23224866  0.42991971    -0.44100
C1289       C  0.85649320  0.23823886  0.07783164    -0.00600
C1290       C  0.88423034  0.23806652  0.10723489    -0.12400
C1291       C  0.87166460  0.21386356  0.14317153     0.01700
C1292       C  0.83036626  0.19023293  0.15078005    -0.00600
C1293       C  0.80320689  0.19489631  0.12419778    -0.12400
C1294       C  0.81580816  0.21822203  0.08778618     0.01600
H1295       H  0.91560009  0.25541110  0.10097051     0.14500
H1296       H  0.77164449  0.17855906  0.13041478     0.14500
C1297       C  0.78633403  0.22085758  0.06088498     0.36200
C1298       C  0.90187139  0.21377709  0.17121971     0.36100
N1299       N  0.76280699  0.22330532  0.53961320    -0.44200
N1300       N  0.92625436  0.21388174  0.19356324    -0.44100
C1301       C  0.86523388  0.25356475  0.95712162     0.86100
C1302       C  0.85818246  0.28837065  0.96153888    -0.54200
C1303       C  0.87666482  0.31195186  0.49687346     0.09000
C1304       C  0.90060274  0.29807541  0.52535008     0.20000
C1305       C  0.91074602  0.27443660  0.95871681    -0.54900
C1306       C  0.92984783  0.29596019  0.49497572     0.09100
C1307       C  0.85219270  0.23163321  0.99913473    -0.54400
C1308       C  0.86952615  0.25464185  0.53478997     0.09700
H1309       H  0.83779391  0.29209366  0.94108663     0.14200
H1310       H  0.91500131  0.31655399  0.55446803    -0.00100
H1311       H  0.92675320  0.27386667  0.93141120     0.14500
H1312       H  0.82994711  0.20042730  0.50061313     0.14300
C1313       C  0.53718036  0.32090709  0.97736285     0.86100
C1314       C  0.99180838  0.29757212  0.97757683    -0.54200
C1315       C  0.97419662  0.31325868  0.50097373     0.09000
C1316       C  0.50519809  0.34987845  0.52786488     0.20000
C1317       C  0.54940275  0.36344404  0.96990232    -0.54900
C1318       C  0.53225634  0.37974749  0.49376010     0.09100
C1319       C  0.54877130  0.32054983  0.02365454    -0.54400
C1320       C  0.53215575  0.33506332  0.55082264     0.09700
H1321       H  0.97491833  0.26913286  0.96129240     0.14200
H1322       H  0.99124567  0.36147091  0.54915311    -0.00100
H1323       H  0.57114419  0.37914825  0.94609260     0.14500
H1324       H  0.56586601  0.30714966  0.53487388     0.14300
C1325       C  0.57870414  0.47398997  0.93316566     0.86100
C1326       C  0.55238182  0.43074569  0.93979185    -0.54200
C1327       C  0.53769294  0.41971479  0.47977849     0.09000
C1328       C  0.54576059  0.45716915  0.50761911     0.20000
C1329       C  0.54814499  0.48659067  0.93849218    -0.54900
C1330       C  0.53516089  0.48428185  0.47920821     0.09100
C1331       C  0.60804534  0.49074677  0.97262979    -0.54400
C1332       C  0.59140245  0.48194112  0.51189457     0.09700
H1333       H  0.54767432  0.41018062  0.91414576     0.14200
H1334       H  0.52918962  0.44948353  0.53723442    -0.00100
H1335       H  0.54118863  0.00152048  0.91371867     0.14500
H1336       H  0.64002127  0.00788183  0.46893337     0.14300
C1337       C  0.54652329  0.08692644  0.97139957     0.86100
C1338       C  0.55720431  0.05507850  0.96933259    -0.54200
C1339       C  0.53613892  0.02230306  0.49369800     0.09000
C1340       C  0.50979743  0.02923760  0.52550616     0.20000
C1341       C  0.00131024  0.06732724  0.96945194    -0.54900
C1342       C  0.98099661  0.03605030  0.49558953     0.09100
C1343       C  0.55758944  0.10124574  0.51722760    -0.54400
C1344       C  0.53876374  0.07184265  0.54644158     0.09700
H1345       H  0.57972782  0.05839338  0.94746534     0.14200
H1346       H  0.99437216  0.50504148  0.54852797    -0.00100
H1347       H  0.98704897  0.07896867  0.94853021     0.14500
H1348       H  0.57726635  0.13194623  0.52657208     0.14300
C1349       C  0.87153474  0.49022131  0.95298309     0.86100
C1350       C  0.91690150  0.01428552  0.95409073    -0.54200
C1351       C  0.93599656  0.51201275  0.49076044     0.09000
C1352       C  0.90620013  0.48331394  0.52330318     0.20000
C1353       C  0.86282702  0.44817113  0.96058160    -0.54900
C1354       C  0.88037631  0.44400655  0.49726276     0.09100
C1355       C  0.85890246  0.50109277  0.99383851    -0.54400
C1356       C  0.87734933  0.49917809  0.53098247     0.09700
H1357       H  0.93207558  0.03071160  0.92625359     0.14200
H1358       H  0.92123467  0.48029363  0.55243989    -0.00100
H1359       H  0.84288220  0.42316720  0.94051980     0.14500
H1360       H  0.83634305  0.00964667  0.49286486     0.14300
C1361       C  0.81679302  0.34819694  0.55239227     0.86100
C1362       C  0.84229965  0.32905832  0.54801401    -0.54200
C1363       C  0.86383986  0.33912528  0.01225788     0.09000
C1364       C  0.85842025  0.36862858  0.98378828     0.20000
C1365       C  0.84522506  0.39252031  0.54901439    -0.54900
C1366       C  0.86715005  0.40386694  0.01343135     0.09100
C1367       C  0.79161235  0.33616902  0.01009272    -0.54400
C1368       C  0.81319155  0.34813525  0.97407744     0.09700
H1369       H  0.83833687  0.30430784  0.56700069     0.14200
H1370       H  0.87669977  0.37766589  0.95503685    -0.00100
H1371       H  0.84202427  0.41316773  0.56864919     0.14500
H1372       H  0.75923851  0.31949181  0.00875183     0.14300
Fe1373     Fe  0.66808756  0.23098129  0.75616223     1.65800
Fe1374     Fe  0.57720876  0.22437498  0.75666238     1.73200
Fe1375     Fe  0.66199052  0.31533105  0.75849088     1.54400
O1376       O  0.70457081  0.32250166  0.80278297    -0.82100
O1377       O  0.56758884  0.25868783  0.71322844    -0.80400
O1378       O  0.71154538  0.26993081  0.79980354    -0.84600
O1379       O  0.70004362  0.26452551  0.70620156    -0.79400
O1380       O  0.63032296  0.31516261  0.80993695    -0.81200
O1381       O  0.57278876  0.18779490  0.70679291    -0.84000
C1382       C  0.70986633  0.29887257  0.69305209     0.96800
C1383       C  0.72059854  0.30318639  0.81569439     1.04200
O1384       O  0.63584887  0.25701137  0.75637077    -1.12900
O1385       O  0.57856629  0.18682230  0.80149968    -0.75400
O1386       O  0.64063061  0.19786186  0.80825031    -0.78900
O1387       O  0.69769691  0.32056816  0.70879062    -0.79600
C1388       C  0.60549409  0.18299896  0.82089924     0.95700
O1389       O  0.62890423  0.18610248  0.71252615    -0.77500
O1390       O  0.57496835  0.25587094  0.80713921    -0.82700
C1391       C  0.58693801  0.29434221  0.70135618     0.98300
C1392       C  0.59746009  0.28931438  0.82477440     1.04200
O1393       O  0.62225160  0.31784810  0.71512157    -0.78300
C1394       C  0.59408325  0.17348845  0.69572992     1.02500
Fe1395     Fe  0.82924916  0.10416039  0.74253043     1.65800
Fe1396     Fe  0.74252379  0.01487074  0.73168567     1.73200
Fe1397     Fe  0.74011294  0.10153590  0.73537304     1.54400
O1398       O  0.76887739  0.13411514  0.79082673    -0.82100
O1399       O  0.70528912  0.01329179  0.68156463    -0.80400
O1400       O  0.82845690  0.13959824  0.78969990    -0.84600
O1401       O  0.83532791  0.14414411  0.69639725    -0.79400
O1402       O  0.69575634  0.06087542  0.77354346    -0.81200
O1403       O  0.78103680  0.01525264  0.68671395    -0.84000
C1404       C  0.81445455  0.15891840  0.68376734     0.96800
C1405       C  0.80402444  0.14730063  0.80655039     1.04200
O1406       O  0.77054886  0.07342330  0.73636915    -1.12900
O1407       O  0.77576205  0.00907961  0.78165312    -0.75400
O1408       O  0.83054167  0.06815662  0.78978125    -0.78900
O1409       O  0.77968150  0.14674424  0.69697423    -0.79600
C1410       C  0.80864556  0.03257441  0.80106975     0.95700
O1411       O  0.83770831  0.07290195  0.69585287    -0.77500
O1412       O  0.70085426  0.00698493  0.77615207    -0.82700
C1413       C  0.69621374  0.03745188  0.66478368     0.98300
C1414       C  0.68494858  0.02669696  0.78775487     1.04200
O1415       O  0.70840676  0.07182678  0.68010273    -0.78300
C1416       C  0.81680172  0.03969200  0.67725325     1.02500
C1417       C  0.73813986  0.31460117  0.65873217    -0.00600
C1418       C  0.77310051  0.31278702  0.66322754    -0.12400
C1419       C  0.80050287  0.32570686  0.63091016     0.01700
C1420       C  0.79151854  0.33823237  0.59167077    -0.00600
C1421       C  0.75834111  0.34380123  0.58951512    -0.12400
C1422       C  0.73148867  0.33170818  0.62231669     0.01600
H1423       H  0.77940049  0.30194989  0.69265946     0.14500
H1424       H  0.75271741  0.35687416  0.56159830     0.14500
C1425       C  0.69640749  0.33529370  0.61695322     0.36200
C1426       C  0.83830074  0.32830298  0.64083322     0.36100
N1427       N  0.66820265  0.33799050  0.61276521    -0.44200
N1428       N  0.86851434  0.33030451  0.64912145    -0.44100
C1429       C  0.79382137  0.34309273  0.93074769    -0.00600
C1430       C  0.80708011  0.33130368  0.89563582    -0.12400
C1431       C  0.78388546  0.31796058  0.85749222     0.01700
C1432       C  0.74847237  0.31934226  0.85311594    -0.00600
C1433       C  0.73860548  0.33672695  0.88582822    -0.12400
C1434       C  0.76087366  0.34870437  0.92421770     0.01600
H1435       H  0.83510339  0.33193009  0.89773219     0.14500
H1436       H  0.71253638  0.33989308  0.88194445     0.14500
C1437       C  0.75038638  0.36861789  0.95531410     0.36200
C1438       C  0.79731747  0.30382335  0.82312391     0.36100
N1439       N  0.74206609  0.38491018  0.97985740    -0.44200
N1440       N  0.80794707  0.29249818  0.79543296    -0.44100
C1441       C  0.82227776  0.01924498  0.83939696    -0.00600
C1442       C  0.84703427  0.04808020  0.86983688    -0.12400
C1443       C  0.86216719  0.03881092  0.90617284     0.01700
C1444       C  0.85329395  0.99939147  0.91325509    -0.00600
C1445       C  0.82753308  0.47007326  0.88307755    -0.12400
C1446       C  0.81183926  0.47958034  0.84674546     0.01600
H1447       H  0.85422425  0.07835037  0.86564794     0.14500
H1448       H  0.81918091  0.43955584  0.88717477     0.14500
C1449       C  0.78564060  0.44800318  0.81745003     0.36200
C1450       C  0.88653147  0.07084455  0.93597482     0.36100
N1451       N  0.76447871  0.42246808  0.79428120    -0.44200
N1452       N  0.90575112  0.09639563  0.95997333    -0.44100
C1453       C  0.86871506  0.01275292  0.57227893    -0.00600
C1454       C  0.85923829  0.04309435  0.56974317    -0.12400
C1455       C  0.84258331  0.05203373  0.60354401     0.01700
C1456       C  0.83481477  0.03064036  0.64149742    -0.00600
C1457       C  0.84759091  0.50317474  0.64622396    -0.12400
C1458       C  0.86563645  0.49501315  0.61261102     0.01600
H1459       H  0.86433617  0.05986554  0.54075082     0.14500
H1460       H  0.84423771  0.48867534  0.67659198     0.14500
C1461       C  0.88200182  0.46998210  0.62190249     0.36200
C1462       C  0.83308695  0.08300501  0.59823988     0.36100
N1463       N  0.89542742  0.45032714  0.63079299    -0.44200
N1464       N  0.82576478  0.10800209  0.59413472    -0.43700
C1465       C  0.57705119  0.14100867  0.66181546    -0.00600
C1466       C  0.53939651  0.12956564  0.64220145    -0.12400
C1467       C  0.52357929  0.10245382  0.60769850     0.01700
C1468       C  0.54470450  0.08489133  0.59215083    -0.00600
C1469       C  0.58085699  0.09396760  0.61337403    -0.12400
C1470       C  0.59712642  0.12154091  0.64761518     0.01600
H1471       H  0.52288949  0.14338549  0.65226547     0.14500
H1472       H  0.59816257  0.08187925  0.60082008     0.14500
C1473       C  0.63544743  0.13041877  0.66573517     0.36200
C1474       C  0.98766865  0.09650528  0.58563605     0.36100
N1475       N  0.66623607  0.13737261  0.67993119    -0.44200
N1476       N  0.95923004  0.09223265  0.56765362    -0.44100
C1477       C  0.56366446  0.11357669  0.93293512    -0.00600
C1478       C  0.59399601  0.15344363  0.93698870    -0.12400
C1479       C  0.60954162  0.17650876  0.90056989     0.01700
C1480       C  0.59455925  0.15962379  0.85963001    -0.00600
C1481       C  0.56503367  0.12021736  0.85535382    -0.12400
C1482       C  0.54973804  0.09705355  0.89097610     0.01600
H1483       H  0.60569593  0.16678714  0.96813746     0.14500
H1484       H  0.55344919  0.10755185  0.82374153     0.14500
C1485       C  0.51891302  0.05638920  0.88271646     0.36200
C1486       C  0.63959625  0.21770996  0.90593778     0.36100
N1487       N  0.49396533  0.02411876  0.87548208    -0.44200
N1488       N  0.66360827  0.25074158  0.91038042    -0.44100
C1489       C  0.61625355  0.49678244  0.55302626    -0.00600
C1490       C  0.65338341  0.03234595  0.55242490    -0.12400
C1491       C  0.67971938  0.04610486  0.58820175     0.01700
C1492       C  0.66939712  0.02444669  0.62615439    -0.00600
C1493       C  0.63213397  0.48986453  0.62775687    -0.12400
C1494       C  0.60527345  0.47638647  0.59230976     0.01600
H1495       H  0.66220765  0.04995851  0.52389142     0.14500
H1496       H  0.62361532  0.47364037  0.65733167     0.14500
C1497       C  0.56668513  0.44236443  0.59888373     0.36200
C1498       C  0.71795150  0.08157808  0.58428941     0.36100
N1499       N  0.53574147  0.41569266  0.60617883    -0.44200
N1500       N  0.74856425  0.10989893  0.58041233    -0.44100
C1501       C  0.60232108  0.48391229  0.89166764    -0.00600
C1502       C  0.59948766  0.00805034  0.85977858    -0.12400
C1503       C  0.62477044  0.02108350  0.82499708     0.01700
C1504       C  0.65391529  0.00996750  0.82079913    -0.00600
C1505       C  0.65544470  0.98427128  0.85098813    -0.12400
C1506       C  0.63078217  0.47172806  0.88609969     0.01600
H1507       H  0.57860136  0.01829502  0.86184699     0.14500
H1508       H  0.67771023  0.47558273  0.84857948     0.14500
C1509       C  0.63836120  0.44916096  0.91772215     0.36200
C1510       C  0.61986137  0.04587140  0.79408795     0.36100
N1511       N  0.64581433  0.43212970  0.94312281    -0.44200
N1512       N  0.61571535  0.06570848  0.76948084    -0.44100
C1513       C  0.58353746  0.29795051  0.86390901    -0.00600
C1514       C  0.60775557  0.31039096  0.90146378    -0.12400
C1515       C  0.59322451  0.31579588  0.93981010     0.01700
C1516       C  0.55317807  0.30730610  0.94115606    -0.00600
C1517       C  0.53043147  0.29679640  0.90212584    -0.12400
C1518       C  0.54479899  0.29160116  0.86444919     0.01600
H1519       H  0.63804371  0.31600876  0.90077900     0.14500
H1520       H  0.50165393  0.29481962  0.89973780     0.14500
C1521       C  0.51988513  0.28215277  0.82592349     0.36200
C1522       C  0.62084503  0.33227571  0.97603637     0.36100
N1523       N  0.50010660  0.27475714  0.79502845    -0.44200
N1524       N  0.64328998  0.34567468  0.50487777    -0.44100
C1525       C  0.56774997  0.30828583  0.66905980    -0.00600
C1526       C  0.53187519  0.28000416  0.64829936    -0.12400
C1527       C  0.51649542  0.28953829  0.61219293     0.01700
C1528       C  0.53609749  0.32859303  0.59681241    -0.00600
C1529       C  0.56999688  0.35758258  0.61954559    -0.12400
C1530       C  0.58552973  0.34814527  0.65577644     0.01600
H1531       H  0.51740823  0.24936746  0.65790881     0.14500
H1532       H  0.58690750  0.38689369  0.60651267     0.14500
C1533       C  0.62073152  0.37990412  0.67701647     0.36200
C1534       C  0.48490719  0.25726275  0.58733550     0.36100
N1535       N  0.64882409  0.40561634  0.69388155    -0.44200
N1536       N  0.46031753  0.23101563  0.06729269    -0.44100
C1537       C  0.81779836  0.17256477  0.84615149    -0.00600
C1538       C  0.79522430  0.18826879  0.86222426    -0.12400
C1539       C  0.80860051  0.21347649  0.89851526     0.01700
C1540       C  0.84628491  0.22489671  0.91858753    -0.00600
C1541       C  0.86588673  0.20512687  0.90523096    -0.12400
C1542       C  0.85325966  0.18076155  0.86915976     0.01600
H1543       H  0.76687697  0.18070469  0.84660714     0.14500
H1544       H  0.89191181  0.20869686  0.92306152     0.14500
C1545       C  0.87829244  0.16522995  0.85711102     0.36200
C1546       C  0.78150484  0.22422305  0.91590496     0.36100
N1547       N  0.89905452  0.15365928  0.84751178    -0.44200
N1548       N  0.75932074  0.23225205  0.92986797    -0.44100
C1549       C  0.85652815  0.23825680  0.57784992    -0.00600
C1550       C  0.88426265  0.23805152  0.60723182    -0.12400
C1551       C  0.87169301  0.21383799  0.64315995     0.01700
C1552       C  0.83039470  0.19022403  0.65077635    -0.00600
C1553       C  0.80324212  0.19491833  0.62421746    -0.12400
C1554       C  0.81584675  0.21825895  0.58781751     0.01600
H1555       H  0.91563130  0.25537748  0.60095615     0.14500
H1556       H  0.77168107  0.17859394  0.63044215     0.14500
C1557       C  0.78637842  0.22092472  0.56093801     0.36200
C1558       C  0.90189446  0.21372337  0.67119270     0.36100
N1559       N  0.76275806  0.22321365  0.03954175    -0.44200
N1560       N  0.92626984  0.21380330  0.69352735    -0.44100
C1561       C  0.86524300  0.75356547  0.45711883     0.86100
C1562       C  0.85818932  0.78837009  0.46153961    -0.54200
C1563       C  0.87666748  0.81195921  0.99686200     0.09000
C1564       C  0.90060192  0.79807721  0.02533685     0.20000
C1565       C  0.91075496  0.77443843  0.45871450    -0.54900
C1566       C  0.92984776  0.79596232  0.99496268     0.09100
C1567       C  0.85220304  0.73163059  0.49913014    -0.54400
C1568       C  0.86952139  0.75464360  0.03477160     0.09700
H1569       H  0.83780299  0.79209513  0.44108765     0.14200
H1570       H  0.91499993  0.81655241  0.05445687    -0.00100
H1571       H  0.92676336  0.77386803  0.43141014     0.14500
H1572       H  0.82994107  0.70043305  0.00058912     0.14300
C1573       C  0.53718708  0.82091482  0.47735874     0.86100
C1574       C  0.99181495  0.79756992  0.47758272    -0.54200
C1575       C  0.97419688  0.81325825  0.00096237     0.09000
C1576       C  0.50519317  0.84986904  0.02786128     0.20000
C1577       C  0.54939777  0.86344740  0.46988999    -0.54900
C1578       C  0.53225555  0.87974325  0.99376306     0.09100
C1579       C  0.54878753  0.82056951  0.52364947    -0.54400
C1580       C  0.53214705  0.83504671  0.05081368     0.09700
H1581       H  0.97492653  0.76913051  0.46129813     0.14200
H1582       H  0.99124687  0.86146195  0.04915474    -0.00100
H1583       H  0.57113379  0.87915081  0.44607514     0.14500
H1584       H  0.56585359  0.80713109  0.03485748     0.14300
C1585       C  0.57869610  0.97398841  0.43316332     0.86100
C1586       C  0.55236793  0.93074480  0.43978439    -0.54200
C1587       C  0.53768968  0.91971052  0.97978483     0.09000
C1588       C  0.54576133  0.95716564  0.00762741     0.20000
C1589       C  0.54814129  0.98659395  0.43849249    -0.54900
C1590       C  0.53516229  0.98428087  0.97921997     0.09100
C1591       C  0.60803705  0.99073874  0.47262903    -0.54400
C1592       C  0.59140331  0.98193624  0.01189944     0.09700
H1593       H  0.54765723  0.91018048  0.41413597     0.14200
H1594       H  0.52919246  0.94948060  0.03724422    -0.00100
H1595       H  0.54118770  0.50151817  0.41370586     0.14500
H1596       H  0.64002938  0.50789303  0.96893357     0.14300
C1597       C  0.54650533  0.58692130  0.47138700     0.86100
C1598       C  0.55718915  0.55507588  0.46931516    -0.54200
C1599       C  0.53614105  0.52230130  0.99369556     0.09000
C1600       C  0.50980410  0.52923777  0.02550885     0.20000
C1601       C  0.00129886  0.56732116  0.46944267    -0.54900
C1602       C  0.98100570  0.53605771  0.99559721     0.09100
C1603       C  0.55760085  0.60124538  0.01723087    -0.54400
C1604       C  0.53877390  0.57184207  0.04644469     0.09700
H1605       H  0.57971250  0.55839409  0.44744582     0.14200
H1606       H  0.99437751  0.00504787  0.04853996    -0.00100
H1607       H  0.98703600  0.57896222  0.44852277     0.14500
H1608       H  0.57727812  0.63194582  0.02657511     0.14300
C1609       C  0.87152057  0.99021525  0.45298888     0.86100
C1610       C  0.91689328  0.51427691  0.45408030    -0.54200
C1611       C  0.93600434  0.01202049  0.99077091     0.09000
C1612       C  0.90620608  0.98332251  0.02331438     0.20000
C1613       C  0.86281078  0.94816415  0.46058922    -0.54900
C1614       C  0.88037953  0.94401427  0.99727492     0.09100
C1615       C  0.85889505  0.00109088  0.49384656    -0.54400
C1616       C  0.87735726  0.99918982  0.03099230     0.09700
H1617       H  0.93206687  0.53070259  0.42624283     0.14200
H1618       H  0.92123971  0.98030164  0.05245161    -0.00100
H1619       H  0.84286168  0.92315891  0.44053075     0.14500
H1620       H  0.83634908  0.50964682  0.99285322     0.14300
C1621       C  0.81679277  0.84819546  0.05239396     0.86100
C1622       C  0.84229984  0.82905798  0.04800886    -0.54200
C1623       C  0.86384865  0.83912483  0.51226240     0.09000
C1624       C  0.85841960  0.86862403  0.48379383     0.20000
C1625       C  0.84522526  0.89252016  0.04902262    -0.54900
C1626       C  0.86714753  0.90386274  0.51343585     0.09100
C1627       C  0.79161589  0.83615641  0.51010978    -0.54400
C1628       C  0.81318913  0.84812430  0.47409071     0.09700
H1629       H  0.83833909  0.80430692  0.06699301     0.14200
H1630       H  0.87669518  0.87766251  0.45503955    -0.00100
H1631       H  0.84202669  0.91316528  0.06866428     0.14500
H1632       H  0.75924204  0.81947522  0.50877606     0.14300
Fe1633     Fe  0.66807875  0.73097300  0.25617117     1.65800
Fe1634     Fe  0.57720738  0.72437919  0.25665422     1.73200
Fe1635     Fe  0.66199569  0.81532914  0.25849398     1.54400
O1636       O  0.70455007  0.82248241  0.30281185    -0.82100
O1637       O  0.56759723  0.75871248  0.21324395    -0.80400
O1638       O  0.71154932  0.76992785  0.29979965    -0.84600
O1639       O  0.70003086  0.76449865  0.20619992    -0.79400
O1640       O  0.63030878  0.81516506  0.30992019    -0.81200
O1641       O  0.57279298  0.68782095  0.20676494    -0.84000
C1642       C  0.70987281  0.79885426  0.19306409     0.96800
C1643       C  0.72058782  0.80317251  0.31570971     1.04200
O1644       O  0.63584738  0.75701040  0.25637105    -1.12900
O1645       O  0.57854796  0.68680020  0.30146690    -0.75400
O1646       O  0.64062291  0.69787689  0.30826958    -0.78900
O1647       O  0.69772135  0.82056065  0.20881468    -0.79600
C1648       C  0.60547662  0.68299611  0.32089275     0.95700
O1649       O  0.62888338  0.68608505  0.21254972    -0.77500
O1650       O  0.57497001  0.75585946  0.30714852    -0.82700
C1651       C  0.58695698  0.79435982  0.20135252     0.98300
C1652       C  0.59745520  0.78931062  0.32477072     1.04200
O1653       O  0.62227948  0.81785800  0.21509909    -0.78300
C1654       C  0.59407520  0.67349246  0.19572801     1.02500
Fe1655     Fe  0.82925569  0.60416346  0.24252102     1.65800
Fe1656     Fe  0.74252691  0.51487632  0.23167839     1.73200
Fe1657     Fe  0.74012292  0.60154484  0.23536998     1.54400
O1658       O  0.76889037  0.63412162  0.29082277    -0.82100
O1659       O  0.70529529  0.51330272  0.18155885    -0.80400
O1660       O  0.82846889  0.63960219  0.28969384    -0.84600
O1661       O  0.83533433  0.64414863  0.19638831    -0.79400
O1662       O  0.69576674  0.56088477  0.27354177    -0.81200
O1663       O  0.78103652  0.51525562  0.18670555    -0.84000
C1664       C  0.81446152  0.65892355  0.18375810     0.96800
C1665       C  0.80403733  0.64730537  0.30654547     1.04200
O1666       O  0.77055543  0.57342912  0.23636313    -1.12900
O1667       O  0.77576310  0.50908149  0.28164394    -0.75400
O1668       O  0.83054695  0.56815588  0.28976976    -0.78900
O1669       O  0.77969036  0.64675246  0.19696900    -0.79600
C1670       C  0.80864803  0.53257402  0.30105903     0.95700
O1671       O  0.83770892  0.57290469  0.19583956    -0.77500
O1672       O  0.70085903  0.50699107  0.27614574    -0.82700
C1673       C  0.69622253  0.53746501  0.16477924     0.98300
C1674       C  0.68495661  0.52670510  0.28775134     1.04200
O1675       O  0.70841568  0.57183899  0.18010026    -0.78300
C1676       C  0.81680018  0.53969451  0.17724128     1.02500
C1677       C  0.73814211  0.81457905  0.15874064    -0.00600
C1678       C  0.77310629  0.81277129  0.16323170    -0.12400
C1679       C  0.80050702  0.82569726  0.13091157     0.01700
C1680       C  0.79151729  0.83822187  0.09167394    -0.00600
C1681       C  0.75833230  0.84377898  0.08952162    -0.12400
C1682       C  0.73148161  0.83167924  0.12232541     0.01600
H1683       H  0.77941085  0.80193632  0.19266239     0.14500
H1684       H  0.75270183  0.85684907  0.06160675     0.14500
C1685       C  0.69639142  0.83525006  0.11696627     0.36200
C1686       C  0.83830869  0.82830014  0.14082994     0.36100
N1687       N  0.66817784  0.83793257  0.11278511    -0.44200
N1688       N  0.86852526  0.83030677  0.14911414    -0.44100
C1689       C  0.79381148  0.84307682  0.43076456    -0.00600
C1690       C  0.80707385  0.83129671  0.39564874    -0.12400
C1691       C  0.78387728  0.81795088  0.35750665     0.01700
C1692       C  0.74845811  0.81932197  0.35313508    -0.00600
C1693       C  0.73858435  0.83669518  0.38585330    -0.12400
C1694       C  0.76085405  0.84867429  0.42424163     0.01600
H1695       H  0.83510152  0.83193251  0.39774058     0.14500
H1696       H  0.71250986  0.83985258  0.38197416     0.14500
C1697       C  0.75035745  0.86857586  0.45534327     0.36200
C1698       C  0.79731508  0.80382282  0.32313538     0.36100
N1699       N  0.74202845  0.88485809  0.47989021    -0.44200
N1700       N  0.80795063  0.79250476  0.29544347    -0.44100
C1701       C  0.82227734  0.51924184  0.33938613    -0.00600
C1702       C  0.84703282  0.54807516  0.36982777    -0.12400
C1703       C  0.86216267  0.53880347  0.40616425     0.01700
C1704       C  0.85328660  0.49938302  0.41324567    -0.00600
C1705       C  0.82751570  0.97006805  0.38308467    -0.12400
C1706       C  0.81182456  0.97957682  0.34675102     0.01600
H1707       H  0.85422439  0.57834573  0.36563961     0.14500
H1708       H  0.81916387  0.93955065  0.38718128     0.14500
C1709       C  0.78563099  0.94800147  0.31745110     0.36200
C1710       C  0.88652954  0.57083637  0.43596605     0.36100
N1711       N  0.76447407  0.92246752  0.29427846    -0.44200
N1712       N  0.90575260  0.59638690  0.45996391    -0.44100
C1713       C  0.86871406  0.51275227  0.07227136    -0.00600
C1714       C  0.85923608  0.54309269  0.06973253    -0.12400
C1715       C  0.84257899  0.55203219  0.10353096     0.01700
C1716       C  0.83481006  0.53064014  0.14148531    -0.00600
C1717       C  0.84759278  0.00318646  0.14623081    -0.12400
C1718       C  0.86563996  0.99502491  0.11261938     0.01600
H1719       H  0.86433554  0.55986374  0.04073982     0.14500
H1720       H  0.84423794  0.98868665  0.17659883     0.14500
C1721       C  0.88200437  0.96999326  0.12191164     0.36200
C1722       C  0.83308319  0.58300361  0.09822378     0.36100
N1723       N  0.89543016  0.95033858  0.13080261    -0.44200
N1724       N  0.82576236  0.60800132  0.09411484    -0.43700
C1725       C  0.57704490  0.64101199  0.16181499    -0.00600
C1726       C  0.53939929  0.62958086  0.14218528    -0.12400
C1727       C  0.52358536  0.60246831  0.10768324     0.01700
C1728       C  0.54470465  0.58489276  0.09215240    -0.00600
C1729       C  0.58084728  0.59395775  0.11339106    -0.12400
C1730       C  0.59711383  0.62153244  0.14763109     0.01600
H1731       H  0.52289755  0.64341033  0.15223645     0.14500
H1732       H  0.59814919  0.58186008  0.10084964     0.14500
C1733       C  0.63542783  0.63040190  0.16576471     0.36200
C1734       C  0.98769106  0.59653788  0.08560467     0.36100
N1735       N  0.66621125  0.63735020  0.17997174    -0.44200
N1736       N  0.95926186  0.59227764  0.06761123    -0.44100
C1737       C  0.56364089  0.61357228  0.43292396    -0.00600
C1738       C  0.59397160  0.65343883  0.43697951    -0.12400
C1739       C  0.60951728  0.67650471  0.40056239     0.01700
C1740       C  0.59453202  0.65962196  0.35962255    -0.00600
C1741       C  0.56500360  0.62021691  0.35534409    -0.12400
C1742       C  0.54971191  0.59705065  0.39096482     0.01600
H1743       H  0.60567381  0.66678065  0.46812833     0.14500
H1744       H  0.55341890  0.60755287  0.32373144     0.14500
C1745       C  0.51889413  0.55638387  0.38270289     0.36200
C1746       C  0.63957803  0.71770337  0.40593288     0.36100
N1747       N  0.49395425  0.52411111  0.37546416    -0.44200
N1748       N  0.66359597  0.75073252  0.41037915    -0.44100
C1749       C  0.61625608  0.99678260  0.05302927    -0.00600
C1750       C  0.65338908  0.53236169  0.05242358    -0.12400
C1751       C  0.67972586  0.54612212  0.08819958     0.01700
C1752       C  0.66940643  0.52446176  0.12615093    -0.00600
C1753       C  0.63213713  0.98987479  0.12776213    -0.12400
C1754       C  0.60527762  0.97639025  0.09231480     0.01600
H1755       H  0.66221026  0.54997471  0.02389022     0.14500
H1756       H  0.62362001  0.97365317  0.15733853     0.14500
C1757       C  0.56669315  0.94236291  0.09888948     0.36200
C1758       C  0.71795591  0.58159788  0.08428662     0.36100
N1759       N  0.53575261  0.91568636  0.10618467    -0.44200
N1760       N  0.74856685  0.60992046  0.08040739    -0.44100
C1761       C  0.60231241  0.98391093  0.39166496    -0.00600
C1762       C  0.59949638  0.50805931  0.35977494    -0.12400
C1763       C  0.62477984  0.52109285  0.32499408     0.01700
C1764       C  0.65392397  0.50997611  0.32079621    -0.00600
C1765       C  0.65545298  0.48427962  0.35098541    -0.12400
C1766       C  0.63077418  0.97172781  0.38609526     0.01600
H1767       H  0.57861122  0.51830538  0.36184349     0.14500
H1768       H  0.67770442  0.97558772  0.34857471     0.14500
C1769       C  0.63835357  0.94915879  0.41771486     0.36200
C1770       C  0.61987266  0.54588225  0.29408542     0.36100
N1771       N  0.64580803  0.93212590  0.44311216    -0.44200
N1772       N  0.61572888  0.56572075  0.26947838    -0.44100
C1773       C  0.58353571  0.79794975  0.36390509    -0.00600
C1774       C  0.60775421  0.81038605  0.40145962    -0.12400
C1775       C  0.59322683  0.81579600  0.43980579     0.01700
C1776       C  0.55318299  0.80731332  0.44115168    -0.00600
C1777       C  0.53043618  0.79680777  0.40212180    -0.12400
C1778       C  0.54480058  0.79160875  0.36444495     0.01600
H1779       H  0.63804008  0.81599780  0.40077438     0.14500
H1780       H  0.50166075  0.79483624  0.39973573     0.14500
C1781       C  0.51988783  0.78216487  0.32591915     0.36200
C1782       C  0.62084899  0.83227545  0.47603075     0.36100
N1783       N  0.50010967  0.77477324  0.29502429    -0.44200
N1784       N  0.64327715  0.84564897  0.00486986    -0.44100
C1785       C  0.56776700  0.80829883  0.16905425    -0.00600
C1786       C  0.53188769  0.78001321  0.14830461    -0.12400
C1787       C  0.51650256  0.78953783  0.11219628     0.01700
C1788       C  0.53610277  0.82858788  0.09680355    -0.00600
C1789       C  0.57000871  0.85758230  0.11952482    -0.12400
C1790       C  0.58554661  0.84815407  0.15575856     0.01600
H1791       H  0.51742071  0.74937905  0.15792366     0.14500
H1792       H  0.58691778  0.88688970  0.10648211     0.14500
C1793       C  0.62074817  0.87991703  0.17699409     0.36200
C1794       C  0.48491050  0.75725546  0.08735007     0.36100
N1795       N  0.64883934  0.90563271  0.19385716    -0.44200
N1796       N  0.46032940  0.73103398  0.56725224    -0.44100
C1797       C  0.81781124  0.67256890  0.34614649    -0.00600
C1798       C  0.79523960  0.68827726  0.36221473    -0.12400
C1799       C  0.80861402  0.71348341  0.39850646     0.01700
C1800       C  0.84629558  0.72489932  0.41858330    -0.00600
C1801       C  0.86589555  0.70512645  0.40523000    -0.12400
C1802       C  0.85326881  0.68076065  0.36915896     0.01600
H1803       H  0.76689470  0.68071685  0.34659402     0.14500
H1804       H  0.89191867  0.70869450  0.42306327     0.14500
C1805       C  0.87829694  0.66522231  0.35711505     0.36200
C1806       C  0.78151718  0.72422991  0.41589292     0.36100
N1807       N  0.89905539  0.65364607  0.34751975    -0.44200
N1808       N  0.75933052  0.73225725  0.42985220    -0.44100
C1809       C  0.85652567  0.73825472  0.07783077    -0.00600
C1810       C  0.88426202  0.73804383  0.10720480    -0.12400
C1811       C  0.87169635  0.71383152  0.14313382     0.01700
C1812       C  0.83039952  0.69022574  0.15076200    -0.00600
C1813       C  0.80324576  0.69492495  0.12420975    -0.12400
C1814       C  0.81584643  0.71826256  0.08780659     0.01600
H1815       H  0.91562932  0.75536518  0.10092186     0.14500
H1816       H  0.77168624  0.67860700  0.13044254     0.14500
C1817       C  0.78637725  0.72093427  0.06093483     0.36200
C1818       C  0.90190157  0.71370969  0.17115348     0.36100
N1819       N  0.76276292  0.72318159  0.53950914    -0.44200
N1820       N  0.92628222  0.71378518  0.19347511    -0.44100
C1821       C  0.86524418  0.75359206  0.95712241     0.86100
C1822       C  0.85820135  0.78840224  0.96154939    -0.54200
C1823       C  0.87664260  0.81192637  0.49685584     0.09000
C1824       C  0.90058235  0.79805377  0.52533658     0.20000
C1825       C  0.91075634  0.77445836  0.95870973    -0.54900
C1826       C  0.92983873  0.79594534  0.49496955     0.09100
C1827       C  0.85220469  0.73165824  0.99913451    -0.54400
C1828       C  0.86950887  0.75461749  0.53476956     0.09700
H1829       H  0.83780881  0.79212983  0.94110262     0.14200
H1830       H  0.91497255  0.81653064  0.55445743    -0.00100
H1831       H  0.92675918  0.77388933  0.93139932     0.14500
H1832       H  0.82994494  0.70040363  0.50058224     0.14300
C1833       C  0.53718618  0.82091310  0.97734991     0.86100
C1834       C  0.99181763  0.79758098  0.97756189    -0.54200
C1835       C  0.97418910  0.81324450  0.50097854     0.09000
C1836       C  0.50518536  0.84985701  0.52787612     0.20000
C1837       C  0.54940635  0.86344764  0.96987803    -0.54900
C1838       C  0.53224216  0.87973631  0.49377750     0.09100
C1839       C  0.54878106  0.82056651  0.02364216    -0.54400
C1840       C  0.53214921  0.83504222  0.55082516     0.09700
H1841       H  0.97492632  0.76914798  0.96126485     0.14200
H1842       H  0.99123140  0.86144963  0.54916358    -0.00100
H1843       H  0.57114741  0.87914770  0.94606640     0.14500
H1844       H  0.56587157  0.80714462  0.53485961     0.14300
C1845       C  0.57873285  0.97400723  0.93316547     0.86100
C1846       C  0.55240696  0.93076299  0.93977969    -0.54200
C1847       C  0.53766170  0.91969788  0.47979520     0.09000
C1848       C  0.54574417  0.95715850  0.50763523     0.20000
C1849       C  0.54817337  0.98660836  0.93848741    -0.54900
C1850       C  0.53514059  0.98427265  0.47922881     0.09100
C1851       C  0.60806457  0.99075343  0.97263920    -0.54400
C1852       C  0.59138685  0.98192482  0.51189301     0.09700
H1853       H  0.54770208  0.91020285  0.91412914     0.14200
H1854       H  0.52918706  0.94948048  0.53726066    -0.00100
H1855       H  0.54115802  0.50150197  0.91372419     0.14500
H1856       H  0.64005148  0.50790291  0.46894861     0.14300
C1857       C  0.54652050  0.58692436  0.97139881     0.86100
C1858       C  0.55719682  0.55507187  0.96933364    -0.54200
C1859       C  0.53614140  0.52230367  0.49367622     0.09000
C1860       C  0.50980467  0.52923302  0.52549796     0.20000
C1861       C  0.00131185  0.56733258  0.96944757    -0.54900
C1862       C  0.98099719  0.53604690  0.49559376     0.09100
C1863       C  0.55759156  0.60124289  0.51721822    -0.54400
C1864       C  0.53877275  0.57183902  0.54643347     0.09700
H1865       H  0.57971670  0.55838067  0.94746448     0.14200
H1866       H  0.99436445  0.00504782  0.54853394    -0.00100
H1867       H  0.98705274  0.57897511  0.94852443     0.14500
H1868       H  0.57726404  0.63194450  0.52656116     0.14300
C1869       C  0.87153204  0.99023416  0.95300420     0.86100
C1870       C  0.91690331  0.51428934  0.95407856    -0.54200
C1871       C  0.93599599  0.01201273  0.49075307     0.09000
C1872       C  0.90620320  0.98330143  0.52329052     0.20000
C1873       C  0.86280649  0.94818013  0.96061857    -0.54900
C1874       C  0.88038606  0.94399597  0.49724367     0.09100
C1875       C  0.85891619  0.00113054  0.99385547    -0.54400
C1876       C  0.87734464  0.99915417  0.53097819     0.09700
H1877       H  0.93207673  0.53072859  0.92624771     0.14200
H1878       H  0.92124161  0.98028067  0.55242334    -0.00100
H1879       H  0.84285510  0.92317201  0.94056428     0.14500
H1880       H  0.83636323  0.50968513  0.49285758     0.14300
C1881       C  0.81676267  0.84818866  0.55235951     0.86100
C1882       C  0.84224624  0.82902280  0.54798253    -0.54200
C1883       C  0.86389085  0.83916536  0.01228171     0.09000
C1884       C  0.85843640  0.86865018  0.98381756     0.20000
C1885       C  0.84521911  0.89250955  0.54899381    -0.54900
C1886       C  0.86714891  0.90388226  0.01346221     0.09100
C1887       C  0.79163693  0.83614976  0.01014695    -0.54400
C1888       C  0.81320336  0.84812607  0.97412020     0.09700
H1889       H  0.83827807  0.80427702  0.56698465     0.14200
H1890       H  0.87671024  0.87769931  0.95506190    -0.00100
H1891       H  0.84203240  0.91316263  0.56863509     0.14500
H1892       H  0.75926318  0.81946018  0.00882566     0.14300
Fe1893     Fe  0.66810974  0.73097937  0.75615933     1.65800
Fe1894     Fe  0.57723251  0.72438284  0.75666651     1.73200
Fe1895     Fe  0.66201823  0.81533401  0.75851142     1.54400
O1896       O  0.70460644  0.82249605  0.80279302    -0.82100
O1897       O  0.56762375  0.75869116  0.71321828    -0.80400
O1898       O  0.71157444  0.76992110  0.79980922    -0.84600
O1899       O  0.70006612  0.76453385  0.70620253    -0.79400
O1900       O  0.63035964  0.81516012  0.80996675    -0.81200
O1901       O  0.57280305  0.68778819  0.70680846    -0.84000
C1902       C  0.70987898  0.79887879  0.69305358     0.96800
C1903       C  0.72063090  0.80317705  0.81570375     1.04200
O1904       O  0.63587363  0.75701396  0.75637925    -1.12900
O1905       O  0.57859246  0.68684418  0.80151958    -0.75400
O1906       O  0.64064684  0.69784916  0.80824288    -0.78900
O1907       O  0.69771032  0.82057245  0.70879822    -0.79600
C1908       C  0.60551589  0.68300461  0.82090597     0.95700
O1909       O  0.62892417  0.68610561  0.71251219    -0.77500
O1910       O  0.57498376  0.75588686  0.80712846    -0.82700
C1911       C  0.58696748  0.79435264  0.70136784     0.98300
C1912       C  0.59748137  0.78931996  0.82478082     1.04200
O1913       O  0.62227242  0.81786224  0.71515683    -0.78300
C1914       C  0.59409663  0.67348621  0.69572982     1.02500
Fe1915     Fe  0.82924003  0.60417268  0.74253714     1.65800
Fe1916     Fe  0.74251127  0.51488327  0.73169965     1.73200
Fe1917     Fe  0.74010329  0.60155028  0.73539760     1.54400
O1918       O  0.76888240  0.63413784  0.79084061    -0.82100
O1919       O  0.70527076  0.51330419  0.68158624    -0.80400
O1920       O  0.82845589  0.63960600  0.78971781    -0.84600
O1921       O  0.83531564  0.64416459  0.69641284    -0.79400
O1922       O  0.69575674  0.56089401  0.77358125    -0.81200
O1923       O  0.78101833  0.51526413  0.68671948    -0.84000
C1924       C  0.81443519  0.65892965  0.68377685     0.96800
C1925       C  0.80402791  0.64731696  0.80656491     1.04200
O1926       O  0.77053842  0.57343660  0.73638512    -1.12900
O1927       O  0.77575359  0.50908923  0.78166010    -0.75400
O1928       O  0.83053971  0.56816288  0.78977971    -0.78900
O1929       O  0.77966084  0.64675064  0.69698279    -0.79600
C1930       C  0.80864221  0.53258105  0.80106944     0.95700
O1931       O  0.83768751  0.57291775  0.69584427    -0.77500
O1932       O  0.70084581  0.50699746  0.77617059    -0.82700
C1933       C  0.69618953  0.53746310  0.66481457     0.98300
C1934       C  0.68494405  0.52671075  0.78778163     1.04200
O1935       O  0.70838128  0.57183585  0.68013807    -0.78300
C1936       C  0.81677925  0.53970641  0.67724728     1.02500
C1937       C  0.73813630  0.81460751  0.65872180    -0.00600
C1938       C  0.77313716  0.81286859  0.66323170    -0.12400
C1939       C  0.80052203  0.82578292  0.63089699     0.01700
C1940       C  0.79148457  0.83822767  0.59163448    -0.00600
C1941       C  0.75826447  0.84372996  0.58946191    -0.12400
C1942       C  0.73142375  0.83163527  0.62227506     0.01600
H1943       H  0.77947742  0.80208878  0.69268268     0.14500
H1944       H  0.75259970  0.85675571  0.56153004     0.14500
C1945       C  0.69629245  0.83513422  0.61689521     0.36200
C1946       C  0.83834891  0.82843868  0.64080727     0.36100
N1947       N  0.66804651  0.83775895  0.61269451    -0.44200
N1948       N  0.86858687  0.83048809  0.64907977    -0.44100
C1949       C  0.79382191  0.84306688  0.93078976    -0.00600
C1950       C  0.80711548  0.83133125  0.89566253    -0.12400
C1951       C  0.78393558  0.81799664  0.85750670     0.01700
C1952       C  0.74849293  0.81932448  0.85313841    -0.00600
C1953       C  0.73858584  0.83665617  0.88586940    -0.12400
C1954       C  0.76084308  0.84863018  0.92426642     0.01600
H1955       H  0.83516087  0.83199800  0.89775389     0.14500
H1956       H  0.71249543  0.83978755  0.88199063     0.14500
C1957       C  0.75031565  0.86850088  0.95537321     0.36200
C1958       C  0.79742088  0.80394199  0.82311172     0.36100
N1959       N  0.74196171  0.88475986  0.97992321    -0.44200
N1960       N  0.80809924  0.79268978  0.79539873    -0.44100
C1961       C  0.82227693  0.51924747  0.83939069    -0.00600
C1962       C  0.84700998  0.54807383  0.86984925    -0.12400
C1963       C  0.86214432  0.53879893  0.90618054     0.01700
C1964       C  0.85329483  0.49938337  0.91323900    -0.00600
C1965       C  0.82750812  0.97007243  0.88311354    -0.12400
C1966       C  0.81181462  0.97957438  0.84677712     0.01600
H1967       H  0.85418027  0.57834019  0.86567755     0.14500
H1968       H  0.81913372  0.93955141  0.88723163     0.14500
C1969       C  0.78558534  0.94798712  0.81750719     0.36200
C1970       C  0.88648537  0.57082180  0.93600302     0.36100
N1971       N  0.76439802  0.92244486  0.79435885    -0.44200
N1972       N  0.90568595  0.59636221  0.96001983    -0.44100
C1973       C  0.86871162  0.51277307  0.57228193    -0.00600
C1974       C  0.85924225  0.54311940  0.56974549    -0.12400
C1975       C  0.84257751  0.55205495  0.60354080     0.01700
C1976       C  0.83478968  0.53065167  0.64148954    -0.00600
C1977       C  0.84762826  0.00317270  0.64623196    -0.12400
C1978       C  0.86566253  0.99500609  0.61261144     0.01600
H1979       H  0.86435435  0.55989792  0.54075640     0.14500
H1980       H  0.84428924  0.98868160  0.67660306     0.14500
C1981       C  0.88203540  0.96997983  0.62189415     0.36200
C1982       C  0.83309655  0.58303642  0.59823603     0.36100
N1983       N  0.89546847  0.95032908  0.63077323    -0.44200
N1984       N  0.82579042  0.60804408  0.59412721    -0.43700
C1985       C  0.57705439  0.64100783  0.66181071    -0.00600
C1986       C  0.53942743  0.62961645  0.64215432    -0.12400
C1987       C  0.52360714  0.60250676  0.60764881     0.01700
C1988       C  0.54469920  0.58489352  0.59214055    -0.00600
C1989       C  0.58082051  0.59392016  0.61340302    -0.12400
C1990       C  0.59709269  0.62149018  0.64764839     0.01600
H1991       H  0.52294873  0.64347651  0.65218591     0.14500
H1992       H  0.59810256  0.58179262  0.60088009     0.14500
C1993       C  0.63537760  0.63030685  0.66581937     0.36200
C1994       C  0.98773317  0.59661663  0.58553116     0.36100
N1995       N  0.66613735  0.63721048  0.68005611    -0.44200
N1996       N  0.95932831  0.59238242  0.56750381    -0.44100
C1997       C  0.56366749  0.61357734  0.93293695    -0.00600
C1998       C  0.59399647  0.65344499  0.93699514    -0.12400
C1999       C  0.60954845  0.67651248  0.90057904     0.01700
C2000       C  0.59457885  0.65962814  0.85963630    -0.00600
C2001       C  0.56505356  0.62022186  0.85535603    -0.12400
C2002       C  0.54974770  0.59705725  0.89097609     0.01600
H2003       H  0.60568855  0.66678816  0.96814553     0.14500
H2004       H  0.55347468  0.60755794  0.82374207     0.14500
C2005       C  0.51891741  0.55639593  0.88271214     0.36200
C2006       C  0.63959473  0.71771534  0.90595367     0.36100
N2007       N  0.49396476  0.52412824  0.87547438    -0.44200
N2008       N  0.66359902  0.75074829  0.91040566    -0.44100
C2009       C  0.61625338  0.99676513  0.55301373    -0.00600
C2010       C  0.65339230  0.53235368  0.55244181    -0.12400
C2011       C  0.67971856  0.54610972  0.58822545     0.01700
C2012       C  0.66937546  0.52446322  0.62618462    -0.00600
C2013       C  0.63216736  0.98983324  0.62772637    -0.12400
C2014       C  0.60529553  0.97635624  0.59228954     0.01600
H2015       H  0.66223389  0.54996055  0.52390520     0.14500
H2016       H  0.62366360  0.97359938  0.65729604     0.14500
C2017       C  0.56671516  0.94232481  0.59886670     0.36200
C2018       C  0.71796474  0.58156421  0.58431087     0.36100
N2019       N  0.53577713  0.91564639  0.60616512    -0.44200
N2020       N  0.74858890  0.60986877  0.58042706    -0.44100
C2021       C  0.60235325  0.98393244  0.89166892    -0.00600
C2022       C  0.59945355  0.50802811  0.85977573    -0.12400
C2023       C  0.62474728  0.52107322  0.82500309     0.01700
C2024       C  0.65390488  0.50997282  0.82081810    -0.00600
C2025       C  0.65543368  0.48427556  0.85100501    -0.12400
C2026       C  0.63080528  0.97173804  0.88609362     0.01600
H2027       H  0.57855706  0.51826097  0.86183650     0.14500
H2028       H  0.67771314  0.97556852  0.84855572     0.14500
C2029       C  0.63838237  0.94916910  0.91771540     0.36200
C2030       C  0.61983377  0.54585176  0.79408477     0.36100
N2031       N  0.64583083  0.93213396  0.94311551    -0.44200
N2032       N  0.61568552  0.56567947  0.76946642    -0.44100
C2033       C  0.58355056  0.79795181  0.86391054    -0.00600
C2034       C  0.60775724  0.81037222  0.90147283    -0.12400
C2035       C  0.59322117  0.81577335  0.93981607     0.01700
C2036       C  0.55318140  0.80730492  0.94114934    -0.00600
C2037       C  0.53044390  0.79680966  0.90211383    -0.12400
C2038       C  0.54481582  0.79161472  0.86444024     0.01600
H2039       H  0.63804065  0.81597545  0.90079686     0.14500
H2040       H  0.50167082  0.79484288  0.89972177     0.14500
C2041       C  0.51990981  0.78217572  0.82590944     0.36200
C2042       C  0.62083080  0.83222195  0.97605438     0.36100
N2043       N  0.50013576  0.77478580  0.79501156    -0.44200
N2044       N  0.64330513  0.84573109  0.50483466    -0.44100
C2045       C  0.56778215  0.80829847  0.66906892    -0.00600
C2046       C  0.53188962  0.78002074  0.64833337    -0.12400
C2047       C  0.51650585  0.78954588  0.61222316     0.01700
C2048       C  0.53611869  0.82859057  0.59681586    -0.00600
C2049       C  0.57004238  0.85757830  0.61952024    -0.12400
C2050       C  0.58557932  0.84815035  0.65575510     0.01600
H2051       H  0.51740829  0.74938967  0.65796557     0.14500
H2052       H  0.58696412  0.88687811  0.60646300     0.14500
C2053       C  0.62080152  0.87990919  0.67696632     0.36200
C2054       C  0.48489925  0.75726466  0.58738978     0.36100
N2055       N  0.64890949  0.90562261  0.69380839    -0.44200
N2056       N  0.46035166  0.73102542  0.06720241    -0.44100
C2057       C  0.81780383  0.67258524  0.84616182    -0.00600
C2058       C  0.79523259  0.68829543  0.86222805    -0.12400
C2059       C  0.80861021  0.71350817  0.89851473     0.01700
C2060       C  0.84629245  0.72492479  0.91858967    -0.00600
C2061       C  0.86588992  0.70514832  0.90524006    -0.12400
C2062       C  0.85326299  0.68078033  0.86917216     0.01600
H2063       H  0.76688643  0.68073247  0.84660897     0.14500
H2064       H  0.89191195  0.70871475  0.92307458     0.14500
C2065       C  0.87829137  0.66524093  0.85713222     0.36200
C2066       C  0.78151705  0.72426188  0.91589687     0.36100
N2067       N  0.89905001  0.65366313  0.84754275    -0.44200
N2068       N  0.75933167  0.73229347  0.92985126    -0.44100
C2069       C  0.85649916  0.73823094  0.57782771    -0.00600
C2070       C  0.88423552  0.73806799  0.60724071    -0.12400
C2071       C  0.87166677  0.71386855  0.64318038     0.01700
C2072       C  0.83036727  0.69022656  0.65077590    -0.00600
C2073       C  0.80320768  0.69488030  0.62418418    -0.12400
C2074       C  0.81581177  0.71820643  0.58777352     0.01600
H2075       H  0.91560681  0.75541788  0.60098391     0.14500
H2076       H  0.77164387  0.67853571  0.63039370     0.14500
C2077       C  0.78633790  0.72083308  0.56086239     0.36200
C2078       C  0.90187066  0.71380187  0.67125117     0.36100
N2079       N  0.76280534  0.72332054  0.03961697    -0.44200
N2080       N  0.92624958  0.71392309  0.69361632    -0.44100
loop_ 
_geom_bond_atom_site_label_1 
_geom_bond_atom_site_label_2 
_geom_bond_distance 
_geom_bond_site_symmetry_2 
_ccdc_geom_bond_type 
C1            C2   1.531       .  S
C1            C7   1.526       .  S
C1            C5   1.528       .  S
C1          C240   1.543       .  S
C2            H9   1.069       .  S
C2          C263   1.371       .  D
C3            C4   1.553   1_556  S
C3          C262   1.371       .  D
C3          C323   1.477   1_556  S
C4            C8   1.545       .  S
C4            C6   1.544   1_554  S
C4           H10   1.110       .  S
C5           H11   1.084       .  S
C5          C266   1.368       .  D
C6          C265   1.368       .  D
C6           C15   1.505   1_556  S
C7          H272   1.087       .  S
C7          C268   1.363       .  D
C8          C267   1.363   1_554  D
C8          C249   1.485       .  S
H12         C267   1.087   1_554  S
C13          C19   1.507       .  S
C13          C17   1.506       .  S
C13        C1054   1.523   1_455  S
C13         C216   1.535       .  S
C14        C1053   1.523       .  S
C14          H21   1.085       .  S
C14         C275   1.362       .  D
C15        C1056   1.554       .  S
C15         C274   1.362   1_554  D
C16          C20   1.586       .  S
C16          C18   1.564   1_554  S
C16        C1055   1.554   1_455  S
C16        H1062   1.108   1_455  S
C17          H23   1.080       .  S
C17         C278   1.374       .  D
C18         C277   1.374       .  D
C18          C27   1.536       .  S
C19         H284   1.086       .  S
C19         C280   1.373       .  D
C20         C279   1.373       .  D
C20         C228   1.480       .  S
H22        C1056   1.108       .  S
H24         C279   1.086       .  S
C25          C26   1.491       .  S
C25          C31   1.554       .  S
C25          C29   1.515       .  S
C25         C201   1.552       .  S
C26          H33   1.086       .  S
C26         C287   1.373       .  D
C27          C28   1.596   1_556  S
C27         C286   1.373       .  D
C28          C32   1.534       .  S
C28          C30   1.582   1_554  S
C28          H34   1.102       .  S
C29         H555   1.078       .  S
C29         C290   1.377       .  D
C30         C289   1.377       .  D
C30         C559   1.543       .  S
C31         H816   1.085       .  S
C31         C292   1.372       .  D
C32         C291   1.372   1_554  D
C32         C189   1.512       .  S
H35         C549   1.078   1_545  S
H36         C811   1.085   1_545  S
C37          C38   1.506       .  S
C37         C303   1.513       .  S
C37        C1081   1.521       .  S
C37         C177   1.528       .  S
C38          H45   1.087       .  S
C38         C299   1.370       .  D
C39          C40   1.575   1_556  S
C39         C298   1.370       .  D
C39         C550   1.543   1_545  S
C40          C44   1.596       .  S
C40        C1082   1.560   1_454  S
C40        H1606   1.109   1_455  S
C41        C1077   1.521       .  S
C41          H47   1.084       .  S
C41         C302   1.363       .  D
C42        C1080   1.560   1_556  S
C42         C301   1.363       .  D
C42         C571   1.513       .  S
C43         C297   1.513   1_554  S
C43          H48   1.085       .  S
C43          C44   1.375       .  D
C44         C168   1.496       .  S
H46        C1600   1.109       .  S
C49          C55   1.527       .  S
C49          C53   1.526       .  S
C49         C570   1.522       .  S
C49         C664   1.542       .  S
C50         C569   1.522   1_545  S
C50          H57   1.083       .  S
C50         C831   1.374       .  D
C51          C52   1.551   1_556  S
C51         C830   1.374       .  D
C51         C562   1.513       .  S
C52          C56   1.560       .  S
C52          C54   1.562   1_554  S
C52          H58   1.106       .  S
C53          H59   1.078       .  S
C53         C314   1.368       .  D
C54         C313   1.368       .  D
C54         C326   1.481   1_556  S
C55         H840   1.086       .  S
C55         C316   1.368       .  D
C56         C315   1.368   1_554  D
C56         C673   1.516       .  S
H60         C835   1.086       .  S
C61          C62   1.527       .  S
C61          C65   1.523       .  S
C61         C327   1.544       .  S
C61         C120   1.527       .  S
C62          H69   1.082       .  S
C62         C323   1.359       .  D
C63          C64   1.551       .  S
C63         C322   1.358       .  D
C63         C263   1.477       .  S
C64          C68   1.539       .  S
C64          C66   1.552       .  S
C64          H70   1.110       .  S
C65          H71   1.079       .  S
C65         C326   1.360       .  D
C66         C325   1.360       .  D
C66         C314   1.481       .  S
C67         C321   1.544       .  S
C67          H72   1.086       .  S
C67          C68   1.366       .  D
C68         C129   1.495       .  S
Fe73         O89   2.111       .  S
Fe73         O79   2.049       .  S
Fe73         O86   2.049       .  S
Fe73         O78   2.076       .  S
Fe73         O84   1.978       .  S
Fe74         O77   2.065       .  S
Fe74         O81   2.072       .  S
Fe74         O85   2.050       .  S
Fe74         O90   2.045       .  S
Fe74         O84   1.972       .  S
Fe75         O93   2.062       .  S
Fe75         O80   2.064       .  S
Fe75         O87   2.066       .  S
Fe75         O76   2.030       .  S
Fe75         O84   1.979       .  S
O76          C83   1.259       .  A
O77          C91   1.269       .  A
O78          C83   1.267       .  A
O79          C82   1.271       .  A
O80          C92   1.267       .  A
O81          C94   1.271       .  A
C82          O87   1.274       .  A
C82         C117   1.463       .  S
C83         C132   1.475       .  S
O85          C88   1.266       .  A
O86          C88   1.263       .  A
C88         C180   1.459       .  S
O89          C94   1.277       .  A
O90          C92   1.266       .  A
C91          O93   1.266       .  A
C91         C225   1.496       .  S
C92         C213   1.468       .  S
C94         C165   1.518       .  S
Fe95        O111   2.054       .  S
Fe95        O101   2.059       .  S
Fe95        O108   2.059       .  S
Fe95        O100   2.048       .  S
Fe95        O106   1.972       .  S
Fe96         O99   2.079       .  S
Fe96        O103   2.090       .  S
Fe96        O107   2.081       .  S
Fe96        O112   2.079       .  S
Fe96        O106   1.986       .  S
Fe97        O115   2.073       .  S
Fe97        O102   2.073       .  S
Fe97        O109   2.077       .  S
Fe97         O98   2.085       .  S
Fe97        O106   1.985       .  S
O98         C105   1.272       .  A
O99         C113   1.273       .  A
O100        C105   1.266       .  A
O101        C104   1.266       .  A
O102        C114   1.269       .  A
O103        C116   1.273       .  A
C104        O109   1.271       .  A
C104        C252   1.492       .  S
C105        C237   1.497       .  S
O107        C110   1.270       .  A
O108        C110   1.270       .  A
C110        C141   1.493       .  S
O111        C116   1.265       .  A
O112        C114   1.272       .  A
C113        O115   1.272       .  A
C113        C192   1.481       .  S
C114        C204   1.498       .  S
C116        C156   1.480       .  S
C117        C118   1.400       .  A
C117        C122   1.403       .  A
C118        C119   1.395       .  A
C118        H123   1.086       .  S
C119        C120   1.420       .  A
C119        C126   1.444       .  S
C120        C121   1.413       .  A
C121        C122   1.395       .  A
C121        H124   1.083       .  S
C122        C125   1.445       .  S
C125        N127   1.157       .  T
C126        N128   1.158       .  T
C129        C130   1.408       .  A
C129        C134   1.414       .  A
C130        C131   1.404       .  A
C130        H135   1.078       .  S
C131        C132   1.408       .  A
C131        C138   1.444       .  S
C132        C133   1.403       .  A
C133        C134   1.393       .  A
C133        H136   1.085       .  S
C134        C137   1.445       .  S
C137        N139   1.157       .  T
C138        N140   1.157       .  T
C141        C142   1.401       .  A
C141        C666   1.415   1_545  A
C142        C143   1.394       .  A
C142        H147   1.082       .  S
C143        C144   1.422   1_545  A
C143        C150   1.447       .  S
C144        C569   1.542       .  S
C144        C665   1.414       .  A
C145        C146   1.410       .  A
C145        C664   1.414       .  A
C145        H148   1.079       .  S
C146        C661   1.415       .  A
C146        C149   1.444       .  S
C149        N151   1.157       .  T
C150        N152   1.157       .  T
C153        C576   1.516   1_545  S
C153        C154   1.414       .  A
C153        C678   1.421   1_545  A
C154        C155   1.397       .  A
C154        H159   1.084       .  S
C155        C156   1.405       .  A
C155        C162   1.445       .  S
C156        C677   1.403       .  A
C157        C158   1.412       .  A
C157        C676   1.403       .  A
C157        H160   1.085       .  S
C158        C673   1.421       .  A
C158        C161   1.439       .  S
C161        N163   1.158       .  T
C162        N164   1.157       .  T
C165        C166   1.414       .  A
C165        C170   1.423       .  A
C166        C167   1.408       .  A
C166        H171   1.084       .  S
C167        C168   1.412       .  A
C167       C1214   1.445   1_455  S
C168        C169   1.406       .  A
C169        C170   1.413       .  A
C169        H172   1.085       .  S
C170        C173   1.443       .  S
C173        N175   1.157       .  T
C174       C1207   1.445       .  S
C174        N176   1.157       .  T
C177        C178   1.406       .  A
C177        C182   1.432       .  A
C178        C179   1.405       .  A
C178        H183   1.081       .  S
C179        C180   1.412       .  A
C179        C186   1.444       .  S
C180        C181   1.386       .  A
C181        C182   1.385       .  A
C181        H184   1.086       .  S
C182        C185   1.448       .  S
C185        N187   1.157   1_455  T
C186        N188   1.157       .  T
C189        C194   1.422       .  A
C189        C710   1.413       .  A
C190        C191   1.402       .  A
C190        C709   1.413   1_545  A
C190        H195   1.083       .  S
C191        C192   1.407       .  A
C191        C198   1.442       .  S
C192        C713   1.399   1_545  A
C193        C194   1.404       .  A
C193        C712   1.399       .  A
C193        H196   1.086       .  S
C194        C197   1.438       .  S
C197        N199   1.157       .  T
C198        N200   1.156       .  T
C201        C206   1.427       .  A
C201        C722   1.413       .  A
C202        C203   1.408       .  A
C202        C721   1.413   1_545  A
C202        H207   1.077       .  S
C203        C204   1.416       .  A
C203        C210   1.445       .  S
C204        C205   1.401   1_545  A
C205        C726   1.403       .  A
C205        H728   1.085       .  S
C206        C725   1.403       .  A
C206        C209   1.445       .  S
H208        C725   1.085       .  S
C209        N211   1.157       .  T
C210        N212   1.157       .  T
C213        C214   1.405       .  A
C213        C218   1.398       .  A
C214        C215   1.409       .  A
C214        H219   1.085       .  S
C215        C216   1.421       .  A
C215        C222   1.443       .  S
C216        C217   1.418       .  A
C217        C218   1.385       .  A
C217        H220   1.082       .  S
C218        C221   1.447       .  S
C221        N223   1.157       .  T
C222        N484   1.158       .  T
N224        C482   1.158   1_554  T
C225        C226   1.406       .  A
C225        C230   1.420       .  A
C226        C227   1.398       .  A
C226        H231   1.084       .  S
C227        C228   1.414       .  A
C227        C234   1.445   1_455  S
C228        C229   1.401       .  A
C229        C230   1.403       .  A
C229        H232   1.082       .  S
C230        C233   1.445       .  S
C233        N235   1.158       .  T
C234        N496   1.157       .  T
N236        C494   1.157       .  T
C237        C238   1.410       .  A
C237        C242   1.418       .  A
C238        C239   1.412       .  A
C238        H243   1.084       .  S
C239        C240   1.421       .  A
C239        C246   1.442       .  S
C240        C241   1.409       .  A
C241        C242   1.390       .  A
C241        H244   1.084       .  S
C242        C245   1.447       .  S
C245        N247   1.157       .  T
C246        N248   1.158       .  T
C249        C250   1.397       .  A
C249        C254   1.412       .  A
C250        C251   1.404       .  A
C250        H255   1.080       .  S
C251        C252   1.420       .  A
C251        C258   1.444       .  S
C252        C253   1.406       .  A
C253        C254   1.399       .  A
C253        H256   1.084       .  S
C254        C257   1.445       .  S
C257        N519   1.157       .  T
C258        N260   1.157       .  T
N259        C517   1.157       .  T
C261        C262   1.531       .  S
C261        C267   1.526       .  S
C261        C265   1.528       .  S
C261        C500   1.543       .  S
C262        H269   1.069       .  S
C263        C264   1.553       .  S
C264        C268   1.545       .  S
C264        C266   1.544       .  S
C264        H270   1.110       .  S
C265        H271   1.084       .  S
C266        C275   1.505       .  S
C268        C509   1.485       .  S
C273       C1314   1.523   1_455  S
C273        C279   1.507   1_556  S
C273        C277   1.506       .  S
C273        C476   1.535       .  S
C274       C1313   1.523       .  S
C274        H281   1.085       .  S
C275       C1316   1.554       .  S
C276       C1315   1.554   1_455  S
C276        C280   1.586       .  S
C276        C278   1.564       .  S
C276       H1322   1.108   1_455  S
C277        H283   1.080       .  S
C278        C287   1.536       .  S
C280        C488   1.480       .  S
H282       C1316   1.108       .  S
C285        C286   1.491       .  S
C285        C291   1.554       .  S
C285        C289   1.515       .  S
C285        C461   1.552       .  S
C286        H293   1.086       .  S
C287        C288   1.596       .  S
C288        C292   1.534       .  S
C288        C290   1.582       .  S
C288        H294   1.102       .  S
C289        H815   1.078       .  S
C290        C819   1.543       .  S
C291        H556   1.085       .  S
C292        C449   1.512       .  S
H295        C809   1.078   1_545  S
H296        C551   1.085   1_545  S
C297        C298   1.506       .  S
C297       C1341   1.521       .  S
C297        C437   1.528       .  S
C298        H305   1.087       .  S
C299        C300   1.575       .  S
C299        C810   1.543   1_545  S
C300        C304   1.596       .  S
C300       C1342   1.560   1_455  S
C300       H1866   1.109   1_455  S
C301       C1337   1.521       .  S
C301        H307   1.084       .  S
C302       C1340   1.560       .  S
C302        C831   1.513       .  S
C303        H308   1.085       .  S
C303        C304   1.375       .  D
C304        C428   1.496       .  S
H306       C1860   1.109       .  S
C309        C830   1.522       .  S
C309        C315   1.527       .  S
C309        C313   1.526       .  S
C309        C924   1.542       .  S
C310        C829   1.522   1_545  S
C310        H317   1.083       .  S
C310        C571   1.374       .  D
C311        C312   1.551       .  S
C311        C570   1.374       .  D
C311        C822   1.513       .  S
C312        C316   1.560       .  S
C312        C314   1.562       .  S
C312        H318   1.106       .  S
C313        H319   1.078       .  S
C315        H580   1.086       .  S
C316        C933   1.516       .  S
H320        C575   1.086       .  S
C321        C322   1.527       .  S
C321        C325   1.523       .  S
C321        C380   1.527       .  S
C322        H329   1.082       .  S
C323        C324   1.551   1_554  S
C324        C328   1.539       .  S
C324        C326   1.552   1_556  S
C324        H330   1.110       .  S
C325        H331   1.079       .  S
C327        H332   1.086       .  S
C327        C328   1.366   1_554  D
C328        C389   1.495       .  S
Fe333       O349   2.111       .  S
Fe333       O339   2.049       .  S
Fe333       O346   2.049       .  S
Fe333       O338   2.076       .  S
Fe333       O344   1.978       .  S
Fe334       O337   2.065       .  S
Fe334       O341   2.072       .  S
Fe334       O345   2.050       .  S
Fe334       O350   2.045       .  S
Fe334       O344   1.972       .  S
Fe335       O353   2.062       .  S
Fe335       O340   2.064       .  S
Fe335       O347   2.066       .  S
Fe335       O336   2.030       .  S
Fe335       O344   1.979       .  S
O336        C343   1.259       .  A
O337        C351   1.269       .  A
O338        C343   1.267       .  A
O339        C342   1.271       .  A
O340        C352   1.267       .  A
O341        C354   1.271       .  A
C342        O347   1.274       .  A
C342        C377   1.463       .  S
C343        C392   1.475       .  S
O345        C348   1.266       .  A
O346        C348   1.263       .  A
C348        C440   1.459       .  S
O349        C354   1.277       .  A
O350        C352   1.267       .  A
C351        O353   1.266       .  A
C351        C485   1.496       .  S
C352        C473   1.468       .  S
C354        C425   1.518       .  S
Fe355       O371   2.054       .  S
Fe355       O361   2.058       .  S
Fe355       O368   2.059       .  S
Fe355       O360   2.048       .  S
Fe355       O366   1.972       .  S
Fe356       O359   2.079       .  S
Fe356       O363   2.089       .  S
Fe356       O367   2.081       .  S
Fe356       O372   2.079       .  S
Fe356       O366   1.986       .  S
Fe357       O375   2.074       .  S
Fe357       O362   2.073       .  S
Fe357       O369   2.077       .  S
Fe357       O358   2.085       .  S
Fe357       O366   1.985       .  S
O358        C365   1.272       .  A
O359        C373   1.273       .  A
O360        C365   1.266       .  A
O361        C364   1.266       .  A
O362        C374   1.269       .  A
O363        C376   1.273       .  A
C364        O369   1.271       .  A
C364        C512   1.492       .  S
C365        C497   1.497       .  S
O367        C370   1.270       .  A
O368        C370   1.270       .  A
C370        C401   1.493       .  S
O371        C376   1.265       .  A
O372        C374   1.272       .  A
C373        O375   1.272       .  A
C373        C452   1.481       .  S
C374        C464   1.498       .  S
C376        C416   1.479       .  S
C377        C378   1.400       .  A
C377        C382   1.403       .  A
C378        C379   1.395       .  A
C378        H383   1.086       .  S
C379        C380   1.420       .  A
C379        C386   1.444       .  S
C380        C381   1.413       .  A
C381        C382   1.395       .  A
C381        H384   1.083       .  S
C382        C385   1.445       .  S
C385        N387   1.157       .  T
C386        N388   1.158       .  T
C389        C390   1.408       .  A
C389        C394   1.414       .  A
C390        C391   1.404       .  A
C390        H395   1.078       .  S
C391        C392   1.408       .  A
C391        C398   1.444       .  S
C392        C393   1.403       .  A
C393        C394   1.393       .  A
C393        H396   1.085       .  S
C394        C397   1.445       .  S
C397        N399   1.157       .  T
C398        N400   1.157       .  T
C401        C402   1.401       .  A
C401        C926   1.415   1_545  A
C402        C403   1.394       .  A
C402        H407   1.082       .  S
C403        C404   1.422   1_545  A
C403        C410   1.447       .  S
C404        C829   1.542       .  S
C404        C925   1.414       .  A
C405        C924   1.414       .  A
C405        C406   1.410       .  A
C405        H408   1.079       .  S
C406        C921   1.415       .  A
C406        C409   1.444       .  S
C409        N411   1.157       .  T
C410        N412   1.157       .  T
C413        C836   1.516   1_545  S
C413        C414   1.414       .  A
C413        C938   1.421   1_545  A
C414        C415   1.397       .  A
C414        H419   1.084       .  S
C415        C416   1.405       .  A
C415        C422   1.445       .  S
C416        C937   1.403       .  A
C417        C936   1.403       .  A
C417        C418   1.412       .  A
C417        H420   1.085       .  S
C418        C933   1.421       .  A
C418        C421   1.439       .  S
C421        N423   1.158       .  T
C422        N424   1.157       .  T
C425        C426   1.414       .  A
C425        C430   1.423       .  A
C426        C427   1.408       .  A
C426        H431   1.084       .  S
C427        C428   1.412       .  A
C427       C1474   1.445   1_455  S
C428        C429   1.406       .  A
C429        C430   1.413       .  A
C429        H432   1.085       .  S
C430        C433   1.443       .  S
C433        N435   1.157       .  T
C434       C1467   1.445       .  S
C434        N436   1.157       .  T
C437        C438   1.406       .  A
C437        C442   1.432       .  A
C438        C439   1.405       .  A
C438        H443   1.081       .  S
C439        C440   1.412       .  A
C439        C446   1.444       .  S
C440        C441   1.386       .  A
C441        C442   1.385       .  A
C441        H444   1.086       .  S
C442        C445   1.448       .  S
C445        N447   1.157   1_455  T
C446        N448   1.157       .  T
C449        C970   1.413       .  A
C449        C454   1.423       .  A
C450        C969   1.413   1_545  A
C450        C451   1.402       .  A
C450        H455   1.083       .  S
C451        C452   1.407       .  A
C451        C458   1.442       .  S
C452        C973   1.399   1_545  A
C453        C972   1.399       .  A
C453        C454   1.404       .  A
C453        H456   1.086       .  S
C454        C457   1.438       .  S
C457        N459   1.157       .  T
C458        N460   1.156       .  T
C461        C982   1.413       .  A
C461        C466   1.427       .  A
C462        C981   1.413   1_545  A
C462        C463   1.408       .  A
C462        H467   1.077       .  S
C463        C464   1.416       .  A
C463        C470   1.445       .  S
C464        C465   1.401   1_545  A
C465        C986   1.403       .  A
C465        H988   1.085       .  S
C466        C985   1.403       .  A
C466        C469   1.445       .  S
H468        C985   1.085       .  S
C469        N471   1.157       .  T
C470        N472   1.157       .  T
C473        C474   1.405       .  A
C473        C478   1.398       .  A
C474        C475   1.409       .  A
C474        H479   1.085       .  S
C475        C476   1.421       .  A
C475        C482   1.443       .  S
C476        C477   1.418       .  A
C477        C478   1.385       .  A
C477        H480   1.082       .  S
C478        C481   1.447       .  S
C481        N483   1.157       .  T
C485        C486   1.406       .  A
C485        C490   1.420       .  A
C486        C487   1.398       .  A
C486        H491   1.084       .  S
C487        C488   1.414       .  A
C487        C494   1.445   1_455  S
C488        C489   1.401       .  A
C489        C490   1.403       .  A
C489        H492   1.082       .  S
C490        C493   1.445       .  S
C493        N495   1.158       .  T
C497        C498   1.410       .  A
C497        C502   1.418       .  A
C498        C499   1.412       .  A
C498        H503   1.084       .  S
C499        C500   1.421       .  A
C499        C506   1.442       .  S
C500        C501   1.409       .  A
C501        C502   1.390       .  A
C501        H504   1.084       .  S
C502        C505   1.447       .  S
C505        N507   1.157       .  T
C506        N508   1.158       .  T
C509        C510   1.397       .  A
C509        C514   1.412       .  A
C510        C511   1.404       .  A
C510        H515   1.080       .  S
C511        C512   1.420       .  A
C511        C518   1.444       .  S
C512        C513   1.406       .  A
C513        C514   1.399       .  A
C513        H516   1.084       .  S
C514        C517   1.445       .  S
C518        N520   1.157       .  T
C521        C522   1.531       .  S
C521        C527   1.526       .  S
C521        C525   1.528       .  S
C521        C760   1.543       .  S
C522        H529   1.069       .  S
C522        C783   1.371       .  D
C523        C524   1.553   1_556  S
C523        C782   1.371       .  D
C523        C843   1.477   1_556  S
C524        C528   1.545       .  S
C524        C526   1.544   1_554  S
C524        H530   1.110       .  S
C525        H531   1.084       .  S
C525        C786   1.368       .  D
C526        C785   1.368       .  D
C526        C535   1.505   1_556  S
C527        H792   1.087       .  S
C527        C788   1.363       .  D
C528        C787   1.363   1_554  D
C528        C769   1.485       .  S
H532        C787   1.087   1_554  S
C533       C1574   1.523   1_455  S
C533        C539   1.507       .  S
C533        C537   1.506       .  S
C533        C736   1.535       .  S
C534       C1573   1.523       .  S
C534        H541   1.085       .  S
C534        C795   1.362       .  D
C535       C1576   1.554       .  S
C535        C794   1.362   1_554  D
C536       C1575   1.554   1_455  S
C536        C540   1.586       .  S
C536        C538   1.564   1_554  S
C536       H1582   1.108   1_455  S
C537        H543   1.080       .  S
C537        C798   1.374       .  D
C538        C797   1.374       .  D
C538        C547   1.536       .  S
C539        H804   1.086       .  S
C539        C800   1.373       .  D
C540        C799   1.373       .  D
C540        C748   1.480       .  S
H542       C1576   1.108       .  S
H544        C799   1.086       .  S
C545        C546   1.491       .  S
C545        C551   1.554       .  S
C545        C549   1.515       .  S
C545        C721   1.552       .  S
C546        H553   1.086       .  S
C546        C807   1.373       .  D
C547        C548   1.596   1_556  S
C547        C806   1.373       .  D
C548        C552   1.534       .  S
C548        C550   1.582   1_554  S
C548        H554   1.102       .  S
C549        C810   1.377       .  D
C550        C809   1.377       .  D
C551        C812   1.372       .  D
C552        C811   1.372   1_554  D
C552        C709   1.512       .  S
C557        C558   1.506       .  S
C557        C823   1.513       .  S
C557       C1601   1.521       .  S
C557        C697   1.528       .  S
C558        H565   1.087       .  S
C558        C819   1.370       .  D
C559        C560   1.575   1_556  S
C559        C818   1.370       .  D
C560        C564   1.596       .  S
C560       C1602   1.560   1_454  S
C560       H1086   1.109   1_455  S
C561       C1597   1.521       .  S
C561        H567   1.084       .  S
C561        C822   1.363       .  D
C562       C1600   1.560   1_556  S
C562        C821   1.363       .  D
C563        C817   1.513   1_554  S
C563        H568   1.085       .  S
C563        C564   1.375       .  D
C564        C688   1.496       .  S
H566       C1080   1.109       .  S
C569        C575   1.527   1_565  S
C569        C573   1.526       .  S
C570        H577   1.083       .  S
C571        C572   1.551   1_546  S
C572        C576   1.560       .  S
C572        C574   1.562   1_554  S
C572        H578   1.106       .  S
C573        H579   1.078       .  S
C573        C834   1.368       .  D
C574        C833   1.368       .  D
C574        C846   1.481   1_556  S
C575        C836   1.368   1_545  D
C576        C835   1.368   1_564  D
C581        C582   1.527       .  S
C581        C847   1.544       .  S
C581        C585   1.523       .  S
C581        C640   1.527       .  S
C582        H589   1.082       .  S
C582        C843   1.358       .  D
C583        C584   1.551       .  S
C583        C842   1.359       .  D
C583        C783   1.477       .  S
C584        C588   1.539       .  S
C584        C586   1.552       .  S
C584        H590   1.110       .  S
C585        H591   1.079       .  S
C585        C846   1.360       .  D
C586        C845   1.360       .  D
C586        C834   1.481       .  S
C587        C841   1.544       .  S
C587        H592   1.086       .  S
C587        C588   1.366       .  D
C588        C649   1.495       .  S
Fe593       O609   2.111       .  S
Fe593       O599   2.049       .  S
Fe593       O606   2.049       .  S
Fe593       O598   2.076       .  S
Fe593       O604   1.978       .  S
Fe594       O597   2.065       .  S
Fe594       O601   2.072       .  S
Fe594       O605   2.050       .  S
Fe594       O610   2.045       .  S
Fe594       O604   1.972       .  S
Fe595       O613   2.062       .  S
Fe595       O600   2.064       .  S
Fe595       O607   2.066       .  S
Fe595       O596   2.030       .  S
Fe595       O604   1.979       .  S
O596        C603   1.259       .  A
O597        C611   1.269       .  A
O598        C603   1.267       .  A
O599        C602   1.271       .  A
O600        C612   1.267       .  A
O601        C614   1.271       .  A
C602        O607   1.274       .  A
C602        C637   1.463       .  S
C603        C652   1.475       .  S
O605        C608   1.266       .  A
O606        C608   1.263       .  A
C608        C700   1.459       .  S
O609        C614   1.277       .  A
O610        C612   1.267       .  A
C611        O613   1.266       .  A
C611        C745   1.496       .  S
C612        C733   1.468       .  S
C614        C685   1.518       .  S
Fe615       O631   2.054       .  S
Fe615       O621   2.059       .  S
Fe615       O628   2.059       .  S
Fe615       O620   2.048       .  S
Fe615       O626   1.972       .  S
Fe616       O619   2.079       .  S
Fe616       O623   2.089       .  S
Fe616       O627   2.081       .  S
Fe616       O632   2.079       .  S
Fe616       O626   1.986       .  S
Fe617       O635   2.074       .  S
Fe617       O622   2.073       .  S
Fe617       O629   2.077       .  S
Fe617       O618   2.085       .  S
Fe617       O626   1.985       .  S
O618        C625   1.272       .  A
O619        C633   1.273       .  A
O620        C625   1.266       .  A
O621        C624   1.266       .  A
O622        C634   1.269       .  A
O623        C636   1.273       .  A
C624        O629   1.271       .  A
C624        C772   1.492       .  S
C625        C757   1.497       .  S
O627        C630   1.270       .  A
O628        C630   1.270       .  A
C630        C661   1.493       .  S
O631        C636   1.265       .  A
O632        C634   1.272       .  A
C633        O635   1.272       .  A
C633        C712   1.481       .  S
C634        C724   1.498       .  S
C636        C676   1.479       .  S
C637        C638   1.400       .  A
C637        C642   1.403       .  A
C638        C639   1.395       .  A
C638        H643   1.086       .  S
C639        C640   1.420       .  A
C639        C646   1.444       .  S
C640        C641   1.413       .  A
C641        C642   1.395       .  A
C641        H644   1.083       .  S
C642        C645   1.445       .  S
C645        N647   1.157       .  T
C646        N648   1.158       .  T
C649        C650   1.408       .  A
C649        C654   1.414       .  A
C650        C651   1.404       .  A
C650        H655   1.078       .  S
C651        C652   1.408       .  A
C651        C658   1.444       .  S
C652        C653   1.403       .  A
C653        C654   1.393       .  A
C653        H656   1.085       .  S
C654        C657   1.445       .  S
C657        N659   1.157       .  T
C658        N660   1.157       .  T
C661        C662   1.401       .  A
C662        C663   1.394       .  A
C662        H667   1.082       .  S
C663        C664   1.422       .  A
C663        C670   1.447       .  S
C665        C666   1.410       .  A
C665        H668   1.079       .  S
C666        C669   1.444       .  S
C669        N671   1.157       .  T
C670        N672   1.157       .  T
C673        C674   1.414       .  A
C674        C675   1.397       .  A
C674        H679   1.084       .  S
C675        C676   1.405       .  A
C675        C682   1.445       .  S
C677        C678   1.412   1_545  A
C677        H680   1.085   1_545  S
C678        C681   1.439       .  S
C681        N683   1.158       .  T
C682        N684   1.157       .  T
C685        C686   1.414       .  A
C685        C690   1.423       .  A
C686        C687   1.408       .  A
C686        H691   1.084       .  S
C687        C688   1.412       .  A
C687       C1734   1.445   1_455  S
C688        C689   1.406       .  A
C689        C690   1.413       .  A
C689        H692   1.085       .  S
C690        C693   1.443       .  S
C693        N695   1.157       .  T
C694       C1727   1.445       .  S
C694        N696   1.157       .  T
C697        C698   1.406       .  A
C697        C702   1.432       .  A
C698        C699   1.405       .  A
C698        H703   1.081       .  S
C699        C700   1.412       .  A
C699        C706   1.444       .  S
C700        C701   1.386       .  A
C701        C702   1.385       .  A
C701        H704   1.086       .  S
C702        C705   1.448       .  S
C705        N707   1.157   1_455  T
C706        N708   1.157       .  T
C709        C714   1.423       .  A
C710        C711   1.402       .  A
C710        H715   1.083       .  S
C711        C712   1.407       .  A
C711        C718   1.442       .  S
C713        C714   1.404       .  A
C713        H716   1.086       .  S
C714        C717   1.438       .  S
C717        N719   1.157       .  T
C718        N720   1.156       .  T
C721        C726   1.427       .  A
C722        C723   1.408       .  A
C722        H727   1.077       .  S
C723        C724   1.416       .  A
C723        C730   1.445       .  S
C724        C725   1.401       .  A
C726        C729   1.445       .  S
C729        N731   1.157       .  T
C730        N732   1.157       .  T
C733        C734   1.405       .  A
C733        C738   1.398       .  A
C734        C735   1.409       .  A
C734        H739   1.085       .  S
C735        C736   1.421       .  A
C735        C742   1.443       .  S
C736        C737   1.418       .  A
C737        C738   1.385       .  A
C737        H740   1.082       .  S
C738        C741   1.447       .  S
C741        N743   1.157       .  T
C742       N1004   1.158       .  T
N744       C1002   1.158   1_554  T
C745        C746   1.406       .  A
C745        C750   1.420       .  A
C746        C747   1.398       .  A
C746        H751   1.084       .  S
C747        C748   1.414       .  A
C747        C754   1.445   1_455  S
C748        C749   1.401       .  A
C749        C750   1.403       .  A
C749        H752   1.082       .  S
C750        C753   1.445       .  S
C753        N755   1.158       .  T
C754       N1016   1.157       .  T
N756       C1014   1.157       .  T
C757        C758   1.410       .  A
C757        C762   1.418       .  A
C758        C759   1.412       .  A
C758        H763   1.084       .  S
C759        C760   1.421       .  A
C759        C766   1.442       .  S
C760        C761   1.409       .  A
C761        C762   1.390       .  A
C761        H764   1.084       .  S
C762        C765   1.447       .  S
C765        N767   1.157       .  T
C766        N768   1.158       .  T
C769        C770   1.397       .  A
C769        C774   1.412       .  A
C770        C771   1.404       .  A
C770        H775   1.080       .  S
C771        C772   1.420       .  A
C771        C778   1.444       .  S
C772        C773   1.406       .  A
C773        C774   1.399       .  A
C773        H776   1.084       .  S
C774        C777   1.445       .  S
C777       N1039   1.157       .  T
C778        N780   1.157       .  T
N779       C1037   1.157       .  T
C781        C782   1.531       .  S
C781        C787   1.526       .  S
C781        C785   1.528       .  S
C781       C1020   1.543       .  S
C782        H789   1.069       .  S
C783        C784   1.553       .  S
C784        C788   1.545       .  S
C784        C786   1.544       .  S
C784        H790   1.110       .  S
C785        H791   1.084       .  S
C786        C795   1.505       .  S
C788       C1029   1.485       .  S
C793       C1834   1.523   1_455  S
C793        C799   1.507   1_556  S
C793        C797   1.506       .  S
C793        C996   1.535       .  S
C794       C1833   1.523       .  S
C794        H801   1.085       .  S
C795       C1836   1.554       .  S
C796       C1835   1.554   1_455  S
C796        C800   1.586       .  S
C796        C798   1.564       .  S
C796       H1842   1.108   1_455  S
C797        H803   1.080       .  S
C798        C807   1.536       .  S
C800       C1008   1.480       .  S
H802       C1836   1.108       .  S
C805        C806   1.491       .  S
C805        C811   1.554       .  S
C805        C809   1.515       .  S
C805        C981   1.552       .  S
C806        H813   1.086       .  S
C807        C808   1.596       .  S
C808        C812   1.534       .  S
C808        C810   1.582       .  S
C808        H814   1.102       .  S
C812        C969   1.512       .  S
C817        C818   1.506       .  S
C817       C1861   1.521       .  S
C817        C957   1.528       .  S
C818        H825   1.087       .  S
C819        C820   1.575       .  S
C820        C824   1.596       .  S
C820       C1862   1.560   1_455  S
C820       H1346   1.109   1_455  S
C821       C1857   1.521       .  S
C821        H827   1.084       .  S
C822       C1860   1.560       .  S
C823        H828   1.085       .  S
C823        C824   1.375       .  D
C824        C948   1.496       .  S
H826       C1340   1.109       .  S
C829        C835   1.527   1_565  S
C829        C833   1.526       .  S
C830        H837   1.083       .  S
C831        C832   1.551   1_545  S
C832        C836   1.560       .  S
C832        C834   1.562       .  S
C832        H838   1.106       .  S
C833        H839   1.078       .  S
C841        C842   1.527       .  S
C841        C845   1.523       .  S
C841        C900   1.527       .  S
C842        H849   1.082       .  S
C843        C844   1.551   1_554  S
C844        C848   1.539       .  S
C844        C846   1.552   1_556  S
C844        H850   1.110       .  S
C845        H851   1.079       .  S
C847        H852   1.086       .  S
C847        C848   1.366   1_554  D
C848        C909   1.495       .  S
Fe853       O869   2.111       .  S
Fe853       O859   2.049       .  S
Fe853       O866   2.049       .  S
Fe853       O858   2.076       .  S
Fe853       O864   1.978       .  S
Fe854       O857   2.065       .  S
Fe854       O861   2.072       .  S
Fe854       O865   2.050       .  S
Fe854       O870   2.045       .  S
Fe854       O864   1.972       .  S
Fe855       O873   2.062       .  S
Fe855       O860   2.064       .  S
Fe855       O867   2.066       .  S
Fe855       O856   2.030       .  S
Fe855       O864   1.979       .  S
O856        C863   1.259       .  A
O857        C871   1.269       .  A
O858        C863   1.267       .  A
O859        C862   1.271       .  A
O860        C872   1.267       .  A
O861        C874   1.271       .  A
C862        O867   1.274       .  A
C862        C897   1.463       .  S
C863        C912   1.475       .  S
O865        C868   1.266       .  A
O866        C868   1.263       .  A
C868        C960   1.459       .  S
O869        C874   1.277       .  A
O870        C872   1.267       .  A
C871        O873   1.266       .  A
C871       C1005   1.496       .  S
C872        C993   1.468       .  S
C874        C945   1.518       .  S
Fe875       O891   2.054       .  S
Fe875       O881   2.059       .  S
Fe875       O888   2.059       .  S
Fe875       O880   2.048       .  S
Fe875       O886   1.972       .  S
Fe876       O879   2.079       .  S
Fe876       O883   2.089       .  S
Fe876       O887   2.081       .  S
Fe876       O892   2.079       .  S
Fe876       O886   1.986       .  S
Fe877       O895   2.073       .  S
Fe877       O882   2.073       .  S
Fe877       O889   2.077       .  S
Fe877       O878   2.085       .  S
Fe877       O886   1.985       .  S
O878        C885   1.272       .  A
O879        C893   1.273       .  A
O880        C885   1.266       .  A
O881        C884   1.266       .  A
O882        C894   1.269       .  A
O883        C896   1.273       .  A
C884        O889   1.271       .  A
C884       C1032   1.492       .  S
C885       C1017   1.497       .  S
O887        C890   1.270       .  A
O888        C890   1.270       .  A
C890        C921   1.493       .  S
O891        C896   1.265       .  A
O892        C894   1.272       .  A
C893        O895   1.272       .  A
C893        C972   1.481       .  S
C894        C984   1.498       .  S
C896        C936   1.480       .  S
C897        C898   1.400       .  A
C897        C902   1.403       .  A
C898        C899   1.395       .  A
C898        H903   1.086       .  S
C899        C900   1.420       .  A
C899        C906   1.444       .  S
C900        C901   1.413       .  A
C901        C902   1.395       .  A
C901        H904   1.083       .  S
C902        C905   1.445       .  S
C905        N907   1.157       .  T
C906        N908   1.158       .  T
C909        C910   1.408       .  A
C909        C914   1.414       .  A
C910        C911   1.404       .  A
C910        H915   1.078       .  S
C911        C912   1.408       .  A
C911        C918   1.444       .  S
C912        C913   1.403       .  A
C913        C914   1.393       .  A
C913        H916   1.085       .  S
C914        C917   1.445       .  S
C917        N919   1.157       .  T
C918        N920   1.157       .  T
C921        C922   1.401       .  A
C922        C923   1.394       .  A
C922        H927   1.082       .  S
C923        C924   1.422       .  A
C923        C930   1.447       .  S
C925        C926   1.410       .  A
C925        H928   1.079       .  S
C926        C929   1.444       .  S
C929        N931   1.157       .  T
C930        N932   1.157       .  T
C933        C934   1.414       .  A
C934        C935   1.397       .  A
C934        H939   1.084       .  S
C935        C936   1.405       .  A
C935        C942   1.445       .  S
C937        C938   1.412   1_545  A
C937        H940   1.085   1_545  S
C938        C941   1.439       .  S
C941        N943   1.158       .  T
C942        N944   1.157       .  T
C945        C946   1.414       .  A
C945        C950   1.423       .  A
C946        C947   1.408       .  A
C946        H951   1.084       .  S
C947        C948   1.412       .  A
C947       C1994   1.445   1_455  S
C948        C949   1.406       .  A
C949        C950   1.413       .  A
C949        H952   1.085       .  S
C950        C953   1.443       .  S
C953        N955   1.157       .  T
C954       C1987   1.445       .  S
C954        N956   1.157       .  T
C957        C958   1.406       .  A
C957        C962   1.432       .  A
C958        C959   1.405       .  A
C958        H963   1.081       .  S
C959        C960   1.412       .  A
C959        C966   1.444       .  S
C960        C961   1.386       .  A
C961        C962   1.385       .  A
C961        H964   1.086       .  S
C962        C965   1.448       .  S
C965        N967   1.157   1_455  T
C966        N968   1.157       .  T
C969        C974   1.423       .  A
C970        C971   1.402       .  A
C970        H975   1.083       .  S
C971        C972   1.407       .  A
C971        C978   1.442       .  S
C973        C974   1.404       .  A
C973        H976   1.086       .  S
C974        C977   1.438       .  S
C977        N979   1.157       .  T
C978        N980   1.156       .  T
C981        C986   1.427       .  A
C982        C983   1.408       .  A
C982        H987   1.077       .  S
C983        C984   1.416       .  A
C983        C990   1.445       .  S
C984        C985   1.401       .  A
C986        C989   1.445       .  S
C989        N991   1.157       .  T
C990        N992   1.157       .  T
C993        C994   1.405       .  A
C993        C998   1.398       .  A
C994        C995   1.409       .  A
C994        H999   1.085       .  S
C995        C996   1.421       .  A
C995       C1002   1.443       .  S
C996        C997   1.418       .  A
C997        C998   1.385       .  A
C997       H1000   1.082       .  S
C998       C1001   1.447       .  S
C1001      N1003   1.157       .  T
C1005      C1006   1.406       .  A
C1005      C1010   1.420       .  A
C1006      C1007   1.398       .  A
C1006      H1011   1.084       .  S
C1007      C1008   1.414       .  A
C1007      C1014   1.445   1_455  S
C1008      C1009   1.401       .  A
C1009      C1010   1.403       .  A
C1009      H1012   1.082       .  S
C1010      C1013   1.445       .  S
C1013      N1015   1.158       .  T
C1017      C1018   1.410       .  A
C1017      C1022   1.418       .  A
C1018      C1019   1.412       .  A
C1018      H1023   1.084       .  S
C1019      C1020   1.421       .  A
C1019      C1026   1.442       .  S
C1020      C1021   1.409       .  A
C1021      C1022   1.390       .  A
C1021      H1024   1.084       .  S
C1022      C1025   1.447       .  S
C1025      N1027   1.157       .  T
C1026      N1028   1.158       .  T
C1029      C1030   1.397       .  A
C1029      C1034   1.412       .  A
C1030      C1031   1.404       .  A
C1030      H1035   1.080       .  S
C1031      C1032   1.420       .  A
C1031      C1038   1.444       .  S
C1032      C1033   1.406       .  A
C1033      C1034   1.399       .  A
C1033      H1036   1.084       .  S
C1034      C1037   1.445       .  S
C1038      N1040   1.157       .  T
C1041      C1042   1.531       .  S
C1041      C1047   1.526       .  S
C1041      C1045   1.528       .  S
C1041      C1280   1.543       .  S
C1042      H1049   1.069       .  S
C1042      C1303   1.371       .  D
C1043      C1044   1.553   1_556  S
C1043      C1302   1.371       .  D
C1043      C1363   1.477   1_556  S
C1044      C1048   1.545       .  S
C1044      C1046   1.544   1_554  S
C1044      H1050   1.110       .  S
C1045      H1051   1.084       .  S
C1045      C1306   1.368       .  D
C1046      C1305   1.368       .  D
C1046      C1055   1.505   1_556  S
C1047      H1312   1.087       .  S
C1047      C1308   1.363       .  D
C1048      C1307   1.363   1_554  D
C1048      C1289   1.485       .  S
H1052      C1307   1.087   1_554  S
C1053      C1059   1.507       .  S
C1053      C1057   1.506       .  S
C1053      C1256   1.535       .  S
C1054      H1061   1.085       .  S
C1054      C1315   1.362       .  D
C1055      C1314   1.362   1_554  D
C1056      C1060   1.586       .  S
C1056      C1058   1.564   1_554  S
C1057      H1063   1.080       .  S
C1057      C1318   1.374       .  D
C1058      C1317   1.374       .  D
C1058      C1067   1.536       .  S
C1059      H1324   1.086       .  S
C1059      C1320   1.373       .  D
C1060      C1319   1.373       .  D
C1060      C1268   1.480       .  S
H1064      C1319   1.086       .  S
C1065      C1066   1.491       .  S
C1065      C1071   1.554       .  S
C1065      C1069   1.515       .  S
C1065      C1241   1.552       .  S
C1066      H1073   1.086       .  S
C1066      C1327   1.373       .  D
C1067      C1068   1.596   1_556  S
C1067      C1326   1.373       .  D
C1068      C1072   1.534       .  S
C1068      C1070   1.582   1_554  S
C1068      H1074   1.102       .  S
C1069      H1595   1.078       .  S
C1069      C1330   1.377       .  D
C1070      C1329   1.377       .  D
C1070      C1599   1.543       .  S
C1071      H1856   1.085       .  S
C1071      C1332   1.372       .  D
C1072      C1331   1.372   1_554  D
C1072      C1229   1.512       .  S
H1075      C1589   1.078   1_545  S
H1076      C1851   1.085   1_545  S
C1077      C1078   1.506       .  S
C1077      C1343   1.513       .  S
C1077      C1217   1.528       .  S
C1078      H1085   1.087       .  S
C1078      C1339   1.370       .  D
C1079      C1080   1.575   1_556  S
C1079      C1338   1.370       .  D
C1079      C1590   1.543   1_545  S
C1080      C1084   1.596       .  S
C1081      H1087   1.084   1_455  S
C1081      C1342   1.363   1_455  D
C1082      C1341   1.363   1_655  D
C1082      C1611   1.513       .  S
C1083      C1337   1.513   1_554  S
C1083      H1088   1.085       .  S
C1083      C1084   1.375       .  D
C1084      C1208   1.496       .  S
C1089      C1610   1.522       .  S
C1089      C1095   1.527       .  S
C1089      C1093   1.526       .  S
C1089      C1704   1.542       .  S
C1090      C1609   1.522   1_545  S
C1090      H1097   1.083       .  S
C1090      C1871   1.374       .  D
C1091      C1092   1.551   1_556  S
C1091      C1870   1.374       .  D
C1091      C1602   1.513       .  S
C1092      C1096   1.560       .  S
C1092      C1094   1.562   1_554  S
C1092      H1098   1.106       .  S
C1093      H1099   1.078       .  S
C1093      C1354   1.368       .  D
C1094      C1353   1.368       .  D
C1094      C1366   1.481   1_556  S
C1095      H1880   1.086       .  S
C1095      C1356   1.368       .  D
C1096      C1355   1.368   1_554  D
C1096      C1713   1.516       .  S
H1100      C1875   1.086       .  S
C1101      C1102   1.527       .  S
C1101      C1367   1.544       .  S
C1101      C1105   1.523       .  S
C1101      C1160   1.527       .  S
C1102      H1109   1.082       .  S
C1102      C1363   1.359       .  D
C1103      C1104   1.551       .  S
C1103      C1362   1.358       .  D
C1103      C1303   1.477       .  S
C1104      C1108   1.539       .  S
C1104      C1106   1.552       .  S
C1104      H1110   1.110       .  S
C1105      H1111   1.079       .  S
C1105      C1366   1.360       .  D
C1106      C1365   1.360       .  D
C1106      C1354   1.481       .  S
C1107      C1361   1.544       .  S
C1107      H1112   1.086       .  S
C1107      C1108   1.366       .  D
C1108      C1169   1.495       .  S
Fe1113     O1129   2.111       .  S
Fe1113     O1119   2.049       .  S
Fe1113     O1126   2.049       .  S
Fe1113     O1118   2.076       .  S
Fe1113     O1124   1.978       .  S
Fe1114     O1117   2.065       .  S
Fe1114     O1121   2.072       .  S
Fe1114     O1125   2.050       .  S
Fe1114     O1130   2.045       .  S
Fe1114     O1124   1.972       .  S
Fe1115     O1133   2.062       .  S
Fe1115     O1120   2.064       .  S
Fe1115     O1127   2.066       .  S
Fe1115     O1116   2.030       .  S
Fe1115     O1124   1.979       .  S
O1116      C1123   1.259       .  A
O1117      C1131   1.269       .  A
O1118      C1123   1.267       .  A
O1119      C1122   1.271       .  A
O1120      C1132   1.267       .  A
O1121      C1134   1.271       .  A
C1122      O1127   1.274       .  A
C1122      C1157   1.463       .  S
C1123      C1172   1.475       .  S
O1125      C1128   1.266       .  A
O1126      C1128   1.263       .  A
C1128      C1220   1.459       .  S
O1129      C1134   1.277       .  A
O1130      C1132   1.266       .  A
C1131      O1133   1.266       .  A
C1131      C1265   1.496       .  S
C1132      C1253   1.468       .  S
C1134      C1205   1.518       .  S
Fe1135     O1151   2.054       .  S
Fe1135     O1141   2.059       .  S
Fe1135     O1148   2.059       .  S
Fe1135     O1140   2.048       .  S
Fe1135     O1146   1.972       .  S
Fe1136     O1139   2.079       .  S
Fe1136     O1143   2.090       .  S
Fe1136     O1147   2.081       .  S
Fe1136     O1152   2.079       .  S
Fe1136     O1146   1.986       .  S
Fe1137     O1155   2.074       .  S
Fe1137     O1142   2.073       .  S
Fe1137     O1149   2.077       .  S
Fe1137     O1138   2.085       .  S
Fe1137     O1146   1.985       .  S
O1138      C1145   1.272       .  A
O1139      C1153   1.273       .  A
O1140      C1145   1.266       .  A
O1141      C1144   1.266       .  A
O1142      C1154   1.269       .  A
O1143      C1156   1.273       .  A
C1144      O1149   1.271       .  A
C1144      C1292   1.492       .  S
C1145      C1277   1.497       .  S
O1147      C1150   1.270       .  A
O1148      C1150   1.270       .  A
C1150      C1181   1.493       .  S
O1151      C1156   1.265       .  A
O1152      C1154   1.272       .  A
C1153      O1155   1.272       .  A
C1153      C1232   1.481       .  S
C1154      C1244   1.498       .  S
C1156      C1196   1.480       .  S
C1157      C1158   1.400       .  A
C1157      C1162   1.403       .  A
C1158      C1159   1.395       .  A
C1158      H1163   1.086       .  S
C1159      C1160   1.420       .  A
C1159      C1166   1.444       .  S
C1160      C1161   1.413       .  A
C1161      C1162   1.395       .  A
C1161      H1164   1.083       .  S
C1162      C1165   1.445       .  S
C1165      N1167   1.157       .  T
C1166      N1168   1.158       .  T
C1169      C1170   1.408       .  A
C1169      C1174   1.414       .  A
C1170      C1171   1.404       .  A
C1170      H1175   1.078       .  S
C1171      C1172   1.408       .  A
C1171      C1178   1.444       .  S
C1172      C1173   1.403       .  A
C1173      C1174   1.393       .  A
C1173      H1176   1.085       .  S
C1174      C1177   1.445       .  S
C1177      N1179   1.157       .  T
C1178      N1180   1.157       .  T
C1181      C1182   1.401       .  A
C1181      C1706   1.415   1_545  A
C1182      C1183   1.394       .  A
C1182      H1187   1.082       .  S
C1183      C1184   1.422   1_545  A
C1183      C1190   1.447       .  S
C1184      C1609   1.542       .  S
C1184      C1705   1.414       .  A
C1185      C1704   1.414       .  A
C1185      C1186   1.410       .  A
C1185      H1188   1.079       .  S
C1186      C1701   1.415       .  A
C1186      C1189   1.444       .  S
C1189      N1191   1.157       .  T
C1190      N1192   1.157       .  T
C1193      C1616   1.516   1_545  S
C1193      C1194   1.414       .  A
C1193      C1718   1.421   1_545  A
C1194      C1195   1.397       .  A
C1194      H1199   1.084       .  S
C1195      C1196   1.405       .  A
C1195      C1202   1.445       .  S
C1196      C1717   1.403       .  A
C1197      C1716   1.403       .  A
C1197      C1198   1.412       .  A
C1197      H1200   1.085       .  S
C1198      C1713   1.421       .  A
C1198      C1201   1.439       .  S
C1201      N1203   1.158       .  T
C1202      N1204   1.157       .  T
C1205      C1206   1.414       .  A
C1205      C1210   1.423       .  A
C1206      C1207   1.408       .  A
C1206      H1211   1.084       .  S
C1207      C1208   1.412       .  A
C1208      C1209   1.406       .  A
C1209      C1210   1.413       .  A
C1209      H1212   1.085       .  S
C1210      C1213   1.443       .  S
C1213      N1215   1.157       .  T
C1214      N1216   1.157       .  T
C1217      C1218   1.406       .  A
C1217      C1222   1.432       .  A
C1218      C1219   1.405       .  A
C1218      H1223   1.081       .  S
C1219      C1220   1.412       .  A
C1219      C1226   1.444       .  S
C1220      C1221   1.386       .  A
C1221      C1222   1.385       .  A
C1221      H1224   1.086       .  S
C1222      C1225   1.448       .  S
C1225      N1227   1.157       .  T
C1226      N1228   1.157       .  T
C1229      C1750   1.413       .  A
C1229      C1234   1.422       .  A
C1230      C1749   1.413   1_545  A
C1230      C1231   1.402       .  A
C1230      H1235   1.083       .  S
C1231      C1232   1.407       .  A
C1231      C1238   1.442       .  S
C1232      C1753   1.399   1_545  A
C1233      C1752   1.399       .  A
C1233      C1234   1.404       .  A
C1233      H1236   1.086       .  S
C1234      C1237   1.438       .  S
C1237      N1239   1.157       .  T
C1238      N1240   1.156       .  T
C1241      C1762   1.413       .  A
C1241      C1246   1.427       .  A
C1242      C1761   1.413   1_545  A
C1242      C1243   1.408       .  A
C1242      H1247   1.077       .  S
C1243      C1244   1.416       .  A
C1243      C1250   1.445       .  S
C1244      C1245   1.401   1_545  A
C1245      C1766   1.403       .  A
C1245      H1768   1.085       .  S
C1246      C1765   1.403       .  A
C1246      C1249   1.445       .  S
H1248      C1765   1.085       .  S
C1249      N1251   1.157       .  T
C1250      N1252   1.157       .  T
C1253      C1254   1.405       .  A
C1253      C1258   1.398       .  A
C1254      C1255   1.409       .  A
C1254      H1259   1.085       .  S
C1255      C1256   1.421       .  A
C1255      C1262   1.443       .  S
C1256      C1257   1.418       .  A
C1257      C1258   1.385       .  A
C1257      H1260   1.082       .  S
C1258      C1261   1.447       .  S
C1261      N1263   1.157       .  T
C1262      N1524   1.158       .  T
N1264      C1522   1.158   1_554  T
C1265      C1266   1.406       .  A
C1265      C1270   1.420       .  A
C1266      C1267   1.398       .  A
C1266      H1271   1.084       .  S
C1267      C1268   1.414       .  A
C1267      C1274   1.445       .  S
C1268      C1269   1.401       .  A
C1269      C1270   1.403       .  A
C1269      H1272   1.082       .  S
C1270      C1273   1.445       .  S
C1273      N1275   1.158       .  T
C1274      N1536   1.157       .  T
N1276      C1534   1.157       .  T
C1277      C1278   1.410       .  A
C1277      C1282   1.418       .  A
C1278      C1279   1.412       .  A
C1278      H1283   1.084       .  S
C1279      C1280   1.421       .  A
C1279      C1286   1.442       .  S
C1280      C1281   1.409       .  A
C1281      C1282   1.390       .  A
C1281      H1284   1.084       .  S
C1282      C1285   1.447       .  S
C1285      N1287   1.157       .  T
C1286      N1288   1.158       .  T
C1289      C1290   1.397       .  A
C1289      C1294   1.412       .  A
C1290      C1291   1.404       .  A
C1290      H1295   1.080       .  S
C1291      C1292   1.420       .  A
C1291      C1298   1.444       .  S
C1292      C1293   1.406       .  A
C1293      C1294   1.399       .  A
C1293      H1296   1.084       .  S
C1294      C1297   1.445       .  S
C1297      N1559   1.157       .  T
C1298      N1300   1.157       .  T
N1299      C1557   1.157       .  T
C1301      C1302   1.531       .  S
C1301      C1307   1.526       .  S
C1301      C1305   1.528       .  S
C1301      C1540   1.543       .  S
C1302      H1309   1.069       .  S
C1303      C1304   1.553       .  S
C1304      C1308   1.545       .  S
C1304      C1306   1.544       .  S
C1304      H1310   1.110       .  S
C1305      H1311   1.084       .  S
C1306      C1315   1.505       .  S
C1308      C1549   1.485       .  S
C1313      C1319   1.507   1_556  S
C1313      C1317   1.506       .  S
C1313      C1516   1.535       .  S
C1314      H1321   1.085       .  S
C1316      C1320   1.586       .  S
C1316      C1318   1.564       .  S
C1317      H1323   1.080       .  S
C1318      C1327   1.536       .  S
C1320      C1528   1.480       .  S
C1325      C1326   1.491       .  S
C1325      C1331   1.554       .  S
C1325      C1329   1.515       .  S
C1325      C1501   1.552       .  S
C1326      H1333   1.086       .  S
C1327      C1328   1.596       .  S
C1328      C1332   1.534       .  S
C1328      C1330   1.582       .  S
C1328      H1334   1.102       .  S
C1329      H1855   1.078       .  S
C1330      C1859   1.543       .  S
C1331      H1596   1.085       .  S
C1332      C1489   1.512       .  S
H1335      C1849   1.078   1_545  S
H1336      C1591   1.085   1_545  S
C1337      C1338   1.506       .  S
C1337      C1477   1.528       .  S
C1338      H1345   1.087       .  S
C1339      C1340   1.575       .  S
C1339      C1850   1.543   1_545  S
C1340      C1344   1.596       .  S
C1341      H1347   1.084   1_455  S
C1342      C1871   1.513       .  S
C1343      H1348   1.085       .  S
C1343      C1344   1.375       .  D
C1344      C1468   1.496       .  S
C1349      C1870   1.522       .  S
C1349      C1355   1.527       .  S
C1349      C1353   1.526       .  S
C1349      C1964   1.542       .  S
C1350      C1869   1.522   1_545  S
C1350      H1357   1.083       .  S
C1350      C1611   1.374       .  D
C1351      C1352   1.551       .  S
C1351      C1610   1.374       .  D
C1351      C1862   1.513       .  S
C1352      C1356   1.560       .  S
C1352      C1354   1.562       .  S
C1352      H1358   1.106       .  S
C1353      H1359   1.078       .  S
C1355      H1620   1.086       .  S
C1356      C1973   1.516       .  S
H1360      C1615   1.086       .  S
C1361      C1362   1.527       .  S
C1361      C1365   1.523       .  S
C1361      C1420   1.527       .  S
C1362      H1369   1.082       .  S
C1363      C1364   1.551   1_554  S
C1364      C1368   1.539       .  S
C1364      C1366   1.552   1_556  S
C1364      H1370   1.110       .  S
C1365      H1371   1.079       .  S
C1367      H1372   1.086       .  S
C1367      C1368   1.366   1_554  D
C1368      C1429   1.495       .  S
Fe1373     O1389   2.111       .  S
Fe1373     O1379   2.049       .  S
Fe1373     O1386   2.049       .  S
Fe1373     O1378   2.076       .  S
Fe1373     O1384   1.978       .  S
Fe1374     O1377   2.065       .  S
Fe1374     O1381   2.072       .  S
Fe1374     O1385   2.050       .  S
Fe1374     O1390   2.045       .  S
Fe1374     O1384   1.972       .  S
Fe1375     O1393   2.062       .  S
Fe1375     O1380   2.064       .  S
Fe1375     O1387   2.066       .  S
Fe1375     O1376   2.030       .  S
Fe1375     O1384   1.979       .  S
O1376      C1383   1.259       .  A
O1377      C1391   1.269       .  A
O1378      C1383   1.267       .  A
O1379      C1382   1.271       .  A
O1380      C1392   1.267       .  A
O1381      C1394   1.271       .  A
C1382      O1387   1.274       .  A
C1382      C1417   1.463       .  S
C1383      C1432   1.475       .  S
O1385      C1388   1.266       .  A
O1386      C1388   1.263       .  A
C1388      C1480   1.459       .  S
O1389      C1394   1.277       .  A
O1390      C1392   1.267       .  A
C1391      O1393   1.266       .  A
C1391      C1525   1.496       .  S
C1392      C1513   1.468       .  S
C1394      C1465   1.518       .  S
Fe1395     O1411   2.054       .  S
Fe1395     O1401   2.059       .  S
Fe1395     O1408   2.059       .  S
Fe1395     O1400   2.048       .  S
Fe1395     O1406   1.972       .  S
Fe1396     O1399   2.079       .  S
Fe1396     O1403   2.089       .  S
Fe1396     O1407   2.081       .  S
Fe1396     O1412   2.079       .  S
Fe1396     O1406   1.986       .  S
Fe1397     O1415   2.074       .  S
Fe1397     O1402   2.073       .  S
Fe1397     O1409   2.077       .  S
Fe1397     O1398   2.085       .  S
Fe1397     O1406   1.985       .  S
O1398      C1405   1.272       .  A
O1399      C1413   1.273       .  A
O1400      C1405   1.266       .  A
O1401      C1404   1.266       .  A
O1402      C1414   1.269       .  A
O1403      C1416   1.273       .  A
C1404      O1409   1.271       .  A
C1404      C1552   1.492       .  S
C1405      C1537   1.497       .  S
O1407      C1410   1.270       .  A
O1408      C1410   1.270       .  A
C1410      C1441   1.493       .  S
O1411      C1416   1.265       .  A
O1412      C1414   1.272       .  A
C1413      O1415   1.272       .  A
C1413      C1492   1.481       .  S
C1414      C1504   1.498       .  S
C1416      C1456   1.479       .  S
C1417      C1418   1.400       .  A
C1417      C1422   1.403       .  A
C1418      C1419   1.395       .  A
C1418      H1423   1.086       .  S
C1419      C1420   1.420       .  A
C1419      C1426   1.444       .  S
C1420      C1421   1.413       .  A
C1421      C1422   1.395       .  A
C1421      H1424   1.083       .  S
C1422      C1425   1.445       .  S
C1425      N1427   1.157       .  T
C1426      N1428   1.158       .  T
C1429      C1430   1.408       .  A
C1429      C1434   1.414       .  A
C1430      C1431   1.404       .  A
C1430      H1435   1.078       .  S
C1431      C1432   1.408       .  A
C1431      C1438   1.444       .  S
C1432      C1433   1.403       .  A
C1433      C1434   1.393       .  A
C1433      H1436   1.085       .  S
C1434      C1437   1.445       .  S
C1437      N1439   1.157       .  T
C1438      N1440   1.157       .  T
C1441      C1442   1.401       .  A
C1441      C1966   1.415   1_545  A
C1442      C1443   1.394       .  A
C1442      H1447   1.082       .  S
C1443      C1444   1.422   1_545  A
C1443      C1450   1.447       .  S
C1444      C1869   1.542       .  S
C1444      C1965   1.414       .  A
C1445      C1964   1.414       .  A
C1445      C1446   1.410       .  A
C1445      H1448   1.079       .  S
C1446      C1961   1.415       .  A
C1446      C1449   1.444       .  S
C1449      N1451   1.157       .  T
C1450      N1452   1.157       .  T
C1453      C1876   1.516   1_545  S
C1453      C1454   1.414       .  A
C1453      C1978   1.421   1_545  A
C1454      C1455   1.397       .  A
C1454      H1459   1.084       .  S
C1455      C1456   1.405       .  A
C1455      C1462   1.445       .  S
C1456      C1977   1.403       .  A
C1457      C1976   1.403       .  A
C1457      C1458   1.412       .  A
C1457      H1460   1.085       .  S
C1458      C1973   1.421       .  A
C1458      C1461   1.439       .  S
C1461      N1463   1.158       .  T
C1462      N1464   1.157       .  T
C1465      C1466   1.414       .  A
C1465      C1470   1.423       .  A
C1466      C1467   1.408       .  A
C1466      H1471   1.084       .  S
C1467      C1468   1.412       .  A
C1468      C1469   1.406       .  A
C1469      C1470   1.413       .  A
C1469      H1472   1.085       .  S
C1470      C1473   1.443       .  S
C1473      N1475   1.157       .  T
C1474      N1476   1.157       .  T
C1477      C1478   1.406       .  A
C1477      C1482   1.432       .  A
C1478      C1479   1.405       .  A
C1478      H1483   1.081       .  S
C1479      C1480   1.412       .  A
C1479      C1486   1.444       .  S
C1480      C1481   1.386       .  A
C1481      C1482   1.385       .  A
C1481      H1484   1.086       .  S
C1482      C1485   1.448       .  S
C1485      N1487   1.157       .  T
C1486      N1488   1.157       .  T
C1489      C2010   1.413       .  A
C1489      C1494   1.423       .  A
C1490      C2009   1.413   1_545  A
C1490      C1491   1.402       .  A
C1490      H1495   1.083       .  S
C1491      C1492   1.407       .  A
C1491      C1498   1.442       .  S
C1492      C2013   1.399   1_545  A
C1493      C2012   1.399       .  A
C1493      C1494   1.404       .  A
C1493      H1496   1.086       .  S
C1494      C1497   1.438       .  S
C1497      N1499   1.157       .  T
C1498      N1500   1.156       .  T
C1501      C2022   1.413       .  A
C1501      C1506   1.427       .  A
C1502      C2021   1.413   1_545  A
C1502      C1503   1.408       .  A
C1502      H1507   1.077       .  S
C1503      C1504   1.416       .  A
C1503      C1510   1.445       .  S
C1504      C1505   1.401   1_545  A
C1505      C2026   1.403       .  A
C1505      H2028   1.085       .  S
C1506      C2025   1.403       .  A
C1506      C1509   1.445       .  S
H1508      C2025   1.085       .  S
C1509      N1511   1.157       .  T
C1510      N1512   1.157       .  T
C1513      C1514   1.405       .  A
C1513      C1518   1.398       .  A
C1514      C1515   1.409       .  A
C1514      H1519   1.085       .  S
C1515      C1516   1.421       .  A
C1515      C1522   1.443       .  S
C1516      C1517   1.418       .  A
C1517      C1518   1.385       .  A
C1517      H1520   1.082       .  S
C1518      C1521   1.447       .  S
C1521      N1523   1.157       .  T
C1525      C1526   1.406       .  A
C1525      C1530   1.420       .  A
C1526      C1527   1.398       .  A
C1526      H1531   1.084       .  S
C1527      C1528   1.414       .  A
C1527      C1534   1.445       .  S
C1528      C1529   1.401       .  A
C1529      C1530   1.403       .  A
C1529      H1532   1.082       .  S
C1530      C1533   1.445       .  S
C1533      N1535   1.158       .  T
C1537      C1538   1.410       .  A
C1537      C1542   1.418       .  A
C1538      C1539   1.412       .  A
C1538      H1543   1.084       .  S
C1539      C1540   1.421       .  A
C1539      C1546   1.442       .  S
C1540      C1541   1.409       .  A
C1541      C1542   1.390       .  A
C1541      H1544   1.084       .  S
C1542      C1545   1.447       .  S
C1545      N1547   1.157       .  T
C1546      N1548   1.158       .  T
C1549      C1550   1.397       .  A
C1549      C1554   1.412       .  A
C1550      C1551   1.404       .  A
C1550      H1555   1.080       .  S
C1551      C1552   1.420       .  A
C1551      C1558   1.444       .  S
C1552      C1553   1.406       .  A
C1553      C1554   1.399       .  A
C1553      H1556   1.084       .  S
C1554      C1557   1.445       .  S
C1558      N1560   1.157       .  T
C1561      C1562   1.531       .  S
C1561      C1567   1.526       .  S
C1561      C1565   1.528       .  S
C1561      C1800   1.543       .  S
C1562      H1569   1.069       .  S
C1562      C1823   1.371       .  D
C1563      C1564   1.553   1_556  S
C1563      C1822   1.371       .  D
C1563      C1883   1.477   1_556  S
C1564      C1568   1.545       .  S
C1564      C1566   1.544   1_554  S
C1564      H1570   1.110       .  S
C1565      H1571   1.084       .  S
C1565      C1826   1.368       .  D
C1566      C1825   1.368       .  D
C1566      C1575   1.505   1_556  S
C1567      H1832   1.087       .  S
C1567      C1828   1.363       .  D
C1568      C1827   1.363   1_554  D
C1568      C1809   1.485       .  S
H1572      C1827   1.087   1_554  S
C1573      C1579   1.507       .  S
C1573      C1577   1.506       .  S
C1573      C1776   1.535       .  S
C1574      H1581   1.085       .  S
C1574      C1835   1.362       .  D
C1575      C1834   1.362   1_554  D
C1576      C1580   1.586       .  S
C1576      C1578   1.564   1_554  S
C1577      H1583   1.080       .  S
C1577      C1838   1.374       .  D
C1578      C1837   1.374       .  D
C1578      C1587   1.536       .  S
C1579      H1844   1.086       .  S
C1579      C1840   1.373       .  D
C1580      C1839   1.373       .  D
C1580      C1788   1.480       .  S
H1584      C1839   1.086       .  S
C1585      C1586   1.491       .  S
C1585      C1591   1.554       .  S
C1585      C1589   1.515       .  S
C1585      C1761   1.552       .  S
C1586      H1593   1.086       .  S
C1586      C1847   1.373       .  D
C1587      C1588   1.596   1_556  S
C1587      C1846   1.373       .  D
C1588      C1592   1.534       .  S
C1588      C1590   1.582   1_554  S
C1588      H1594   1.102       .  S
C1589      C1850   1.377       .  D
C1590      C1849   1.377       .  D
C1591      C1852   1.372       .  D
C1592      C1851   1.372   1_554  D
C1592      C1749   1.512       .  S
C1597      C1598   1.506       .  S
C1597      C1863   1.513       .  S
C1597      C1737   1.528       .  S
C1598      H1605   1.087       .  S
C1598      C1859   1.370       .  D
C1599      C1600   1.575   1_556  S
C1599      C1858   1.370       .  D
C1600      C1604   1.596       .  S
C1601      H1607   1.084   1_455  S
C1601      C1862   1.363   1_455  D
C1602      C1861   1.363   1_655  D
C1603      C1857   1.513   1_554  S
C1603      H1608   1.085       .  S
C1603      C1604   1.375       .  D
C1604      C1728   1.496       .  S
C1609      C1615   1.527   1_565  S
C1609      C1613   1.526       .  S
C1610      H1617   1.083       .  S
C1611      C1612   1.551   1_546  S
C1612      C1616   1.560       .  S
C1612      C1614   1.562   1_554  S
C1612      H1618   1.106       .  S
C1613      H1619   1.078       .  S
C1613      C1874   1.368       .  D
C1614      C1873   1.368       .  D
C1614      C1886   1.481   1_556  S
C1615      C1876   1.368   1_545  D
C1616      C1875   1.368   1_564  D
C1621      C1622   1.527       .  S
C1621      C1887   1.544       .  S
C1621      C1625   1.523       .  S
C1621      C1680   1.527       .  S
C1622      H1629   1.082       .  S
C1622      C1883   1.358       .  D
C1623      C1624   1.551       .  S
C1623      C1882   1.359       .  D
C1623      C1823   1.477       .  S
C1624      C1628   1.539       .  S
C1624      C1626   1.552       .  S
C1624      H1630   1.110       .  S
C1625      H1631   1.079       .  S
C1625      C1886   1.360       .  D
C1626      C1885   1.360       .  D
C1626      C1874   1.481       .  S
C1627      C1881   1.544       .  S
C1627      H1632   1.086       .  S
C1627      C1628   1.366       .  D
C1628      C1689   1.495       .  S
Fe1633     O1649   2.111       .  S
Fe1633     O1639   2.049       .  S
Fe1633     O1646   2.049       .  S
Fe1633     O1638   2.076       .  S
Fe1633     O1644   1.978       .  S
Fe1634     O1637   2.065       .  S
Fe1634     O1641   2.072       .  S
Fe1634     O1645   2.050       .  S
Fe1634     O1650   2.045       .  S
Fe1634     O1644   1.972       .  S
Fe1635     O1653   2.062       .  S
Fe1635     O1640   2.064       .  S
Fe1635     O1647   2.066       .  S
Fe1635     O1636   2.030       .  S
Fe1635     O1644   1.979       .  S
O1636      C1643   1.259       .  A
O1637      C1651   1.269       .  A
O1638      C1643   1.267       .  A
O1639      C1642   1.271       .  A
O1640      C1652   1.267       .  A
O1641      C1654   1.271       .  A
C1642      O1647   1.274       .  A
C1642      C1677   1.463       .  S
C1643      C1692   1.475       .  S
O1645      C1648   1.266       .  A
O1646      C1648   1.263       .  A
C1648      C1740   1.459       .  S
O1649      C1654   1.277       .  A
O1650      C1652   1.267       .  A
C1651      O1653   1.266       .  A
C1651      C1785   1.496       .  S
C1652      C1773   1.468       .  S
C1654      C1725   1.518       .  S
Fe1655     O1671   2.054       .  S
Fe1655     O1661   2.059       .  S
Fe1655     O1668   2.059       .  S
Fe1655     O1660   2.048       .  S
Fe1655     O1666   1.972       .  S
Fe1656     O1659   2.079       .  S
Fe1656     O1663   2.089       .  S
Fe1656     O1667   2.081       .  S
Fe1656     O1672   2.079       .  S
Fe1656     O1666   1.986       .  S
Fe1657     O1675   2.074       .  S
Fe1657     O1662   2.073       .  S
Fe1657     O1669   2.077       .  S
Fe1657     O1658   2.085       .  S
Fe1657     O1666   1.985       .  S
O1658      C1665   1.272       .  A
O1659      C1673   1.273       .  A
O1660      C1665   1.266       .  A
O1661      C1664   1.266       .  A
O1662      C1674   1.269       .  A
O1663      C1676   1.273       .  A
C1664      O1669   1.271       .  A
C1664      C1812   1.492       .  S
C1665      C1797   1.497       .  S
O1667      C1670   1.270       .  A
O1668      C1670   1.270       .  A
C1670      C1701   1.493       .  S
O1671      C1676   1.265       .  A
O1672      C1674   1.272       .  A
C1673      O1675   1.272       .  A
C1673      C1752   1.481       .  S
C1674      C1764   1.498       .  S
C1676      C1716   1.479       .  S
C1677      C1678   1.400       .  A
C1677      C1682   1.403       .  A
C1678      C1679   1.395       .  A
C1678      H1683   1.086       .  S
C1679      C1680   1.420       .  A
C1679      C1686   1.444       .  S
C1680      C1681   1.413       .  A
C1681      C1682   1.395       .  A
C1681      H1684   1.083       .  S
C1682      C1685   1.445       .  S
C1685      N1687   1.157       .  T
C1686      N1688   1.158       .  T
C1689      C1690   1.408       .  A
C1689      C1694   1.414       .  A
C1690      C1691   1.404       .  A
C1690      H1695   1.078       .  S
C1691      C1692   1.408       .  A
C1691      C1698   1.444       .  S
C1692      C1693   1.403       .  A
C1693      C1694   1.393       .  A
C1693      H1696   1.085       .  S
C1694      C1697   1.445       .  S
C1697      N1699   1.157       .  T
C1698      N1700   1.157       .  T
C1701      C1702   1.401       .  A
C1702      C1703   1.394       .  A
C1702      H1707   1.082       .  S
C1703      C1704   1.422       .  A
C1703      C1710   1.447       .  S
C1705      C1706   1.410       .  A
C1705      H1708   1.079       .  S
C1706      C1709   1.444       .  S
C1709      N1711   1.157       .  T
C1710      N1712   1.157       .  T
C1713      C1714   1.414       .  A
C1714      C1715   1.397       .  A
C1714      H1719   1.084       .  S
C1715      C1716   1.405       .  A
C1715      C1722   1.445       .  S
C1717      C1718   1.412   1_545  A
C1717      H1720   1.085   1_545  S
C1718      C1721   1.439       .  S
C1721      N1723   1.158       .  T
C1722      N1724   1.157       .  T
C1725      C1726   1.414       .  A
C1725      C1730   1.423       .  A
C1726      C1727   1.408       .  A
C1726      H1731   1.084       .  S
C1727      C1728   1.412       .  A
C1728      C1729   1.406       .  A
C1729      C1730   1.413       .  A
C1729      H1732   1.085       .  S
C1730      C1733   1.443       .  S
C1733      N1735   1.157       .  T
C1734      N1736   1.157       .  T
C1737      C1738   1.406       .  A
C1737      C1742   1.432       .  A
C1738      C1739   1.405       .  A
C1738      H1743   1.081       .  S
C1739      C1740   1.412       .  A
C1739      C1746   1.444       .  S
C1740      C1741   1.386       .  A
C1741      C1742   1.385       .  A
C1741      H1744   1.086       .  S
C1742      C1745   1.448       .  S
C1745      N1747   1.157       .  T
C1746      N1748   1.157       .  T
C1749      C1754   1.423       .  A
C1750      C1751   1.402       .  A
C1750      H1755   1.083       .  S
C1751      C1752   1.407       .  A
C1751      C1758   1.442       .  S
C1753      C1754   1.404       .  A
C1753      H1756   1.086       .  S
C1754      C1757   1.438       .  S
C1757      N1759   1.157       .  T
C1758      N1760   1.156       .  T
C1761      C1766   1.427       .  A
C1762      C1763   1.408       .  A
C1762      H1767   1.077       .  S
C1763      C1764   1.416       .  A
C1763      C1770   1.445       .  S
C1764      C1765   1.401       .  A
C1766      C1769   1.445       .  S
C1769      N1771   1.157       .  T
C1770      N1772   1.157       .  T
C1773      C1774   1.405       .  A
C1773      C1778   1.398       .  A
C1774      C1775   1.409       .  A
C1774      H1779   1.085       .  S
C1775      C1776   1.421       .  A
C1775      C1782   1.443       .  S
C1776      C1777   1.418       .  A
C1777      C1778   1.385       .  A
C1777      H1780   1.082       .  S
C1778      C1781   1.447       .  S
C1781      N1783   1.157       .  T
C1782      N2044   1.158       .  T
N1784      C2042   1.158   1_554  T
C1785      C1786   1.406       .  A
C1785      C1790   1.420       .  A
C1786      C1787   1.398       .  A
C1786      H1791   1.084       .  S
C1787      C1788   1.414       .  A
C1787      C1794   1.445       .  S
C1788      C1789   1.401       .  A
C1789      C1790   1.403       .  A
C1789      H1792   1.082       .  S
C1790      C1793   1.445       .  S
C1793      N1795   1.158       .  T
C1794      N2056   1.157       .  T
N1796      C2054   1.157       .  T
C1797      C1798   1.410       .  A
C1797      C1802   1.418       .  A
C1798      C1799   1.412       .  A
C1798      H1803   1.084       .  S
C1799      C1800   1.421       .  A
C1799      C1806   1.442       .  S
C1800      C1801   1.409       .  A
C1801      C1802   1.390       .  A
C1801      H1804   1.084       .  S
C1802      C1805   1.447       .  S
C1805      N1807   1.157       .  T
C1806      N1808   1.158       .  T
C1809      C1810   1.397       .  A
C1809      C1814   1.412       .  A
C1810      C1811   1.404       .  A
C1810      H1815   1.080       .  S
C1811      C1812   1.420       .  A
C1811      C1818   1.444       .  S
C1812      C1813   1.406       .  A
C1813      C1814   1.399       .  A
C1813      H1816   1.084       .  S
C1814      C1817   1.445       .  S
C1817      N2079   1.157       .  T
C1818      N1820   1.157       .  T
N1819      C2077   1.157       .  T
C1821      C1822   1.531       .  S
C1821      C1827   1.526       .  S
C1821      C1825   1.528       .  S
C1821      C2060   1.543       .  S
C1822      H1829   1.069       .  S
C1823      C1824   1.553       .  S
C1824      C1828   1.545       .  S
C1824      C1826   1.544       .  S
C1824      H1830   1.110       .  S
C1825      H1831   1.084       .  S
C1826      C1835   1.505       .  S
C1828      C2069   1.485       .  S
C1833      C1839   1.507   1_556  S
C1833      C1837   1.506       .  S
C1833      C2036   1.535       .  S
C1834      H1841   1.085       .  S
C1836      C1840   1.586       .  S
C1836      C1838   1.564       .  S
C1837      H1843   1.080       .  S
C1838      C1847   1.536       .  S
C1840      C2048   1.480       .  S
C1845      C1846   1.491       .  S
C1845      C1851   1.554       .  S
C1845      C1849   1.515       .  S
C1845      C2021   1.552       .  S
C1846      H1853   1.086       .  S
C1847      C1848   1.596       .  S
C1848      C1852   1.534       .  S
C1848      C1850   1.582       .  S
C1848      H1854   1.102       .  S
C1852      C2009   1.512       .  S
C1857      C1858   1.506       .  S
C1857      C1997   1.528       .  S
C1858      H1865   1.087       .  S
C1859      C1860   1.575       .  S
C1860      C1864   1.596       .  S
C1861      H1867   1.084   1_455  S
C1863      H1868   1.085       .  S
C1863      C1864   1.375       .  D
C1864      C1988   1.496       .  S
C1869      C1875   1.527   1_565  S
C1869      C1873   1.526       .  S
C1870      H1877   1.083       .  S
C1871      C1872   1.551   1_545  S
C1872      C1876   1.560       .  S
C1872      C1874   1.562       .  S
C1872      H1878   1.106       .  S
C1873      H1879   1.078       .  S
C1881      C1882   1.527       .  S
C1881      C1885   1.523       .  S
C1881      C1940   1.527       .  S
C1882      H1889   1.082       .  S
C1883      C1884   1.551   1_554  S
C1884      C1888   1.539       .  S
C1884      C1886   1.552   1_556  S
C1884      H1890   1.110       .  S
C1885      H1891   1.079       .  S
C1887      H1892   1.086       .  S
C1887      C1888   1.366   1_554  D
C1888      C1949   1.495       .  S
Fe1893     O1909   2.111       .  S
Fe1893     O1899   2.049       .  S
Fe1893     O1906   2.049       .  S
Fe1893     O1898   2.076       .  S
Fe1893     O1904   1.978       .  S
Fe1894     O1897   2.065       .  S
Fe1894     O1901   2.072       .  S
Fe1894     O1905   2.050       .  S
Fe1894     O1910   2.045       .  S
Fe1894     O1904   1.972       .  S
Fe1895     O1913   2.062       .  S
Fe1895     O1900   2.064       .  S
Fe1895     O1907   2.066       .  S
Fe1895     O1896   2.030       .  S
Fe1895     O1904   1.979       .  S
O1896      C1903   1.259       .  A
O1897      C1911   1.269       .  A
O1898      C1903   1.267       .  A
O1899      C1902   1.271       .  A
O1900      C1912   1.267       .  A
O1901      C1914   1.271       .  A
C1902      O1907   1.274       .  A
C1902      C1937   1.463       .  S
C1903      C1952   1.475       .  S
O1905      C1908   1.266       .  A
O1906      C1908   1.263       .  A
C1908      C2000   1.459       .  S
O1909      C1914   1.277       .  A
O1910      C1912   1.267       .  A
C1911      O1913   1.266       .  A
C1911      C2045   1.496       .  S
C1912      C2033   1.468       .  S
C1914      C1985   1.518       .  S
Fe1915     O1931   2.054       .  S
Fe1915     O1921   2.059       .  S
Fe1915     O1928   2.059       .  S
Fe1915     O1920   2.048       .  S
Fe1915     O1926   1.972       .  S
Fe1916     O1919   2.079       .  S
Fe1916     O1923   2.090       .  S
Fe1916     O1927   2.081       .  S
Fe1916     O1932   2.079       .  S
Fe1916     O1926   1.986       .  S
Fe1917     O1935   2.074       .  S
Fe1917     O1922   2.073       .  S
Fe1917     O1929   2.077       .  S
Fe1917     O1918   2.085       .  S
Fe1917     O1926   1.985       .  S
O1918      C1925   1.272       .  A
O1919      C1933   1.273       .  A
O1920      C1925   1.266       .  A
O1921      C1924   1.266       .  A
O1922      C1934   1.269       .  A
O1923      C1936   1.273       .  A
C1924      O1929   1.271       .  A
C1924      C2072   1.492       .  S
C1925      C2057   1.497       .  S
O1927      C1930   1.270       .  A
O1928      C1930   1.270       .  A
C1930      C1961   1.493       .  S
O1931      C1936   1.265       .  A
O1932      C1934   1.272       .  A
C1933      O1935   1.272       .  A
C1933      C2012   1.481       .  S
C1934      C2024   1.498       .  S
C1936      C1976   1.480       .  S
C1937      C1938   1.400       .  A
C1937      C1942   1.403       .  A
C1938      C1939   1.395       .  A
C1938      H1943   1.086       .  S
C1939      C1940   1.420       .  A
C1939      C1946   1.444       .  S
C1940      C1941   1.413       .  A
C1941      C1942   1.395       .  A
C1941      H1944   1.083       .  S
C1942      C1945   1.445       .  S
C1945      N1947   1.157       .  T
C1946      N1948   1.158       .  T
C1949      C1950   1.408       .  A
C1949      C1954   1.414       .  A
C1950      C1951   1.404       .  A
C1950      H1955   1.078       .  S
C1951      C1952   1.408       .  A
C1951      C1958   1.444       .  S
C1952      C1953   1.403       .  A
C1953      C1954   1.393       .  A
C1953      H1956   1.085       .  S
C1954      C1957   1.445       .  S
C1957      N1959   1.157       .  T
C1958      N1960   1.157       .  T
C1961      C1962   1.401       .  A
C1962      C1963   1.394       .  A
C1962      H1967   1.082       .  S
C1963      C1964   1.422       .  A
C1963      C1970   1.447       .  S
C1965      C1966   1.410       .  A
C1965      H1968   1.079       .  S
C1966      C1969   1.444       .  S
C1969      N1971   1.157       .  T
C1970      N1972   1.157       .  T
C1973      C1974   1.414       .  A
C1974      C1975   1.397       .  A
C1974      H1979   1.084       .  S
C1975      C1976   1.405       .  A
C1975      C1982   1.445       .  S
C1977      C1978   1.412   1_545  A
C1977      H1980   1.085   1_545  S
C1978      C1981   1.439       .  S
C1981      N1983   1.158       .  T
C1982      N1984   1.157       .  T
C1985      C1986   1.414       .  A
C1985      C1990   1.423       .  A
C1986      C1987   1.409       .  A
C1986      H1991   1.084       .  S
C1987      C1988   1.412       .  A
C1988      C1989   1.406       .  A
C1989      C1990   1.413       .  A
C1989      H1992   1.085       .  S
C1990      C1993   1.443       .  S
C1993      N1995   1.157       .  T
C1994      N1996   1.157       .  T
C1997      C1998   1.406       .  A
C1997      C2002   1.432       .  A
C1998      C1999   1.405       .  A
C1998      H2003   1.081       .  S
C1999      C2000   1.412       .  A
C1999      C2006   1.444       .  S
C2000      C2001   1.386       .  A
C2001      C2002   1.385       .  A
C2001      H2004   1.086       .  S
C2002      C2005   1.448       .  S
C2005      N2007   1.157       .  T
C2006      N2008   1.157       .  T
C2009      C2014   1.423       .  A
C2010      C2011   1.402       .  A
C2010      H2015   1.083       .  S
C2011      C2012   1.407       .  A
C2011      C2018   1.442       .  S
C2013      C2014   1.404       .  A
C2013      H2016   1.086       .  S
C2014      C2017   1.438       .  S
C2017      N2019   1.157       .  T
C2018      N2020   1.156       .  T
C2021      C2026   1.427       .  A
C2022      C2023   1.408       .  A
C2022      H2027   1.077       .  S
C2023      C2024   1.416       .  A
C2023      C2030   1.445       .  S
C2024      C2025   1.401       .  A
C2026      C2029   1.445       .  S
C2029      N2031   1.157       .  T
C2030      N2032   1.157       .  T
C2033      C2034   1.405       .  A
C2033      C2038   1.398       .  A
C2034      C2035   1.409       .  A
C2034      H2039   1.085       .  S
C2035      C2036   1.421       .  A
C2035      C2042   1.443       .  S
C2036      C2037   1.418       .  A
C2037      C2038   1.385       .  A
C2037      H2040   1.082       .  S
C2038      C2041   1.447       .  S
C2041      N2043   1.157       .  T
C2045      C2046   1.406       .  A
C2045      C2050   1.420       .  A
C2046      C2047   1.398       .  A
C2046      H2051   1.084       .  S
C2047      C2048   1.414       .  A
C2047      C2054   1.445       .  S
C2048      C2049   1.401       .  A
C2049      C2050   1.403       .  A
C2049      H2052   1.082       .  S
C2050      C2053   1.445       .  S
C2053      N2055   1.158       .  T
C2057      C2058   1.410       .  A
C2057      C2062   1.418       .  A
C2058      C2059   1.412       .  A
C2058      H2063   1.084       .  S
C2059      C2060   1.421       .  A
C2059      C2066   1.442       .  S
C2060      C2061   1.409       .  A
C2061      C2062   1.390       .  A
C2061      H2064   1.084       .  S
C2062      C2065   1.447       .  S
C2065      N2067   1.157       .  T
C2066      N2068   1.158       .  T
C2069      C2070   1.397       .  A
C2069      C2074   1.412       .  A
C2070      C2071   1.404       .  A
C2070      H2075   1.080       .  S
C2071      C2072   1.420       .  A
C2071      C2078   1.444       .  S
C2072      C2073   1.406       .  A
C2073      C2074   1.399       .  A
C2073      H2076   1.084       .  S
C2074      C2077   1.445       .  S
C2078      N2080   1.157       .  T
